29
0
O	4.8002	-0.8368	1.6541
C	3.9490	-0.7181	0.8094
C	2.9808	0.3222	0.5767
C	2.0935	0.2126	-0.4964
N	2.0237	-0.8054	-1.3911
C	2.8918	-1.7339	-1.1781
N	3.7964	-1.7307	-0.1746
H	4.4437	-2.5046	-0.0800
H	2.8991	-2.5813	-1.8492
N	1.3224	1.3318	-0.4706
C	1.7575	2.0516	0.6062
N	2.7378	1.4881	1.2431
H	1.3255	2.9944	0.8769
C	0.2348	1.6390	-1.3680
C	-1.0453	1.0109	-0.8743
C	-2.0325	1.7811	-0.2703
C	-3.1870	1.1888	0.2044
C	-3.3441	-0.1850	0.0769
C	-2.3620	-0.9694	-0.5165
C	-1.2149	-0.3663	-0.9913
H	-0.4376	-0.9563	-1.4536
H	-2.5152	-2.0345	-0.5983
N	-4.5502	-0.8087	0.5675
O	-4.6502	-2.0100	0.4445
O	-5.3879	-0.0918	1.0700
H	-3.9671	1.7690	0.6729
H	-1.9016	2.8484	-0.1745
H	0.1341	2.7249	-1.4339
H	0.4932	1.2317	-2.3497
29
0
O	-4.6119	-1.4236	-1.3007
C	-3.6835	-1.1148	-0.5968
C	-2.9835	0.1344	-0.4432
C	-1.9236	0.2243	0.4618
N	-1.4457	-0.7657	1.2558
C	-2.0731	-1.8817	1.1118
N	-3.1092	-2.0838	0.2673
H	-3.5450	-2.9972	0.2170
H	-1.7504	-2.7227	1.7091
N	-1.4685	1.5041	0.3902
C	-2.2509	2.1197	-0.5447
N	-3.1578	1.3430	-1.0532
H	-2.1208	3.1499	-0.8118
C	-0.3412	2.0323	1.1178
C	0.9151	1.3108	0.6984
C	1.3902	1.4592	-0.6019
C	2.5142	0.7748	-1.0178
C	3.1643	-0.0647	-0.1212
C	2.6978	-0.2288	1.1766
C	1.5701	0.4592	1.5798
H	1.1903	0.3290	2.5807
H	3.2221	-0.8934	1.8458
N	4.3427	-0.7810	-0.5474
O	4.7232	-0.6094	-1.6850
O	4.8792	-1.5087	0.2596
H	2.8980	0.8763	-2.0213
H	0.8733	2.1103	-1.2913
H	-0.2670	3.1011	0.8990
H	-0.5136	1.8921	2.1888
29
0
O	4.6190	1.6564	-0.9424
C	3.6487	1.2417	-0.3598
C	3.0147	-0.0514	-0.3734
C	1.8817	-0.2718	0.4129
N	1.2705	0.6227	1.2282
C	1.8398	1.7784	1.2343
N	2.9377	2.1038	0.5157
H	3.3204	3.0399	0.5803
H	1.4108	2.5486	1.8594
N	1.5112	-1.5624	0.1948
C	2.4147	-2.0565	-0.7026
N	3.3173	-1.1938	-1.0564
H	2.3699	-3.0652	-1.0634
C	0.3632	-2.2103	0.7765
C	-0.8870	-1.4283	0.4624
C	-1.1953	-1.1323	-0.8628
C	-2.3177	-0.3913	-1.1711
C	-3.1383	0.0529	-0.1413
C	-2.8443	-0.2347	1.1853
C	-1.7154	-0.9730	1.4808
H	-1.4721	-1.1914	2.5088
H	-3.4993	0.1293	1.9618
N	-4.3133	0.8292	-0.4553
O	-5.0060	1.1975	0.4685
O	-4.5353	1.0646	-1.6232
H	-2.5714	-0.1495	-2.1917
H	-0.5481	-1.4791	-1.6550
H	0.2990	-3.2211	0.3622
H	0.4977	-2.2777	1.8607
29
0
O	-4.6513	-1.7233	0.7305
C	-3.6519	-1.2748	0.2276
C	-3.0446	0.0276	0.3225
C	-1.8647	0.2908	-0.3769
N	-1.1824	-0.5686	-1.1734
C	-1.7285	-1.7327	-1.2528
N	-2.8671	-2.0979	-0.6220
H	-3.2271	-3.0378	-0.7399
H	-1.2431	-2.4763	-1.8689
N	-1.5321	1.5789	-0.0926
C	-2.5052	2.0306	0.7535
N	-3.4140	1.1428	1.0176
H	-2.5026	3.0274	1.1482
C	-0.3677	2.2706	-0.5823
C	0.8777	1.4606	-0.3278
C	1.8006	1.2443	-1.3442
C	2.9337	0.4908	-1.1114
C	3.1372	-0.0553	0.1492
C	2.2235	0.1501	1.1758
C	1.0991	0.9116	0.9324
H	0.3828	1.0755	1.7238
H	2.4089	-0.2883	2.1443
N	4.3150	-0.8507	0.3960
O	5.0966	-0.9954	-0.5190
O	4.4508	-1.3250	1.5030
H	3.6606	0.3104	-1.8883
H	1.6287	1.6630	-2.3236
H	-0.4776	2.4527	-1.6566
H	-0.3065	3.2350	-0.0672
29
0
O	-4.8090	-1.3972	-1.1243
C	-3.9006	-1.0317	-0.4213
C	-3.0429	0.1223	-0.5029
C	-2.0460	0.3091	0.4573
N	-1.7724	-0.4950	1.5139
C	-2.5440	-1.5245	1.5835
N	-3.5357	-1.8085	0.7095
H	-4.0941	-2.6441	0.8385
H	-2.3906	-2.2160	2.3998
N	-1.4098	1.4651	0.1279
C	-2.0303	1.9147	-1.0040
N	-3.0007	1.1497	-1.4007
H	-1.7366	2.8211	-1.4959
C	-0.2623	2.0073	0.8019
C	0.9978	1.2428	0.4725
C	1.9689	1.0528	1.4502
C	3.1313	0.3674	1.1591
C	3.3176	-0.1375	-0.1217
C	2.3558	0.0394	-1.1081
C	1.2006	0.7325	-0.8063
H	0.4505	0.8731	-1.5704
H	2.5274	-0.3655	-2.0936
N	4.5291	-0.8574	-0.4317
O	5.3450	-0.9901	0.4546
O	4.6564	-1.2830	-1.5591
H	3.8954	0.2105	1.9049
H	1.8117	1.4424	2.4442
H	-0.1484	3.0543	0.5005
H	-0.4427	1.9658	1.8798
29
0
O	-5.0991	-1.5786	0.5814
C	-4.2504	-0.8931	0.0693
C	-3.1012	-0.2289	0.6282
C	-2.2637	0.5151	-0.2057
N	-2.4020	0.7046	-1.5410
C	-3.4319	0.1091	-2.0360
N	-4.3069	-0.6383	-1.3269
H	-5.0921	-1.0725	-1.7976
H	-3.6130	0.2115	-3.0966
N	-1.2851	1.0239	0.5890
C	-1.5619	0.5680	1.8487
N	-2.6268	-0.1713	1.9072
H	-0.9475	0.8116	2.6926
C	-0.1811	1.8296	0.1509
C	1.1311	1.0859	0.0910
C	1.1950	-0.3011	0.1619
C	2.4124	-0.9502	0.0850
C	3.5729	-0.2040	-0.0683
C	3.5264	1.1834	-0.1436
C	2.3059	1.8198	-0.0618
H	2.2577	2.8968	-0.1183
H	4.4449	1.7370	-0.2632
N	4.8463	-0.8766	-0.1530
O	4.8474	-2.0866	-0.0908
O	5.8358	-0.1887	-0.2823
H	2.4786	-2.0258	0.1407
H	0.2936	-0.8827	0.2785
H	-0.4323	2.1885	-0.8540
H	-0.0789	2.6954	0.8144
29
0
O	-5.0822	-1.6044	-0.4798
C	-4.2216	-0.9096	-0.0013
C	-3.1043	-0.2309	-0.6054
C	-2.2411	0.5207	0.1949
N	-2.3277	0.7075	1.5349
C	-3.3296	0.0995	2.0702
N	-4.2237	-0.6579	1.3964
H	-4.9836	-1.1023	1.8982
H	-3.4689	0.1990	3.1374
N	-1.3023	1.0424	-0.6387
C	-1.6261	0.5856	-1.8869
N	-2.6842	-0.1656	-1.9029
H	-1.0508	0.8385	-2.7553
C	-0.1857	1.8517	-0.2431
C	1.1187	1.0959	-0.1507
C	2.2760	1.8123	0.1498
C	3.4917	1.1709	0.2568
C	3.5513	-0.2041	0.0594
C	2.4086	-0.9324	-0.2409
C	1.1954	-0.2783	-0.3439
H	0.3089	-0.8477	-0.5769
H	2.4844	-1.9986	-0.3893
N	4.8197	-0.8822	0.1701
O	5.7936	-0.2100	0.4326
O	4.8327	-2.0809	-0.0060
H	4.3964	1.7109	0.4899
H	2.2169	2.8794	0.3015
H	-0.0732	2.6802	-0.9516
H	-0.4258	2.2658	0.7425
29
0
O	-4.9485	-1.4402	-0.9226
C	-4.0499	-0.9791	-0.2650
C	-3.0807	0.0425	-0.5669
C	-2.1277	0.3931	0.3920
N	-1.9955	-0.1276	1.6366
C	-2.8652	-1.0404	1.9019
N	-3.8267	-1.4633	1.0508
H	-4.4703	-2.1898	1.3418
H	-2.8269	-1.5061	2.8764
N	-1.3664	1.3726	-0.1653
C	-1.8754	1.5624	-1.4203
N	-2.8890	0.7974	-1.6881
H	-1.4686	2.2855	-2.0993
C	-0.2219	1.9901	0.4418
C	1.0524	1.2015	0.2481
C	1.1913	0.2842	-0.7877
C	2.3724	-0.4139	-0.9503
C	3.4231	-0.1859	-0.0720
C	3.3017	0.7301	0.9663
C	2.1155	1.4166	1.1217
H	2.0085	2.1266	1.9276
H	4.1350	0.8846	1.6344
N	4.6599	-0.9098	-0.2389
O	4.7246	-1.7086	-1.1476
O	5.5576	-0.6727	0.5402
H	2.4949	-1.1310	-1.7474
H	0.3758	0.1087	-1.4730
H	-0.0960	2.9909	0.0130
H	-0.4228	2.0887	1.5128
29
0
O	5.0364	-1.5743	0.5782
C	4.1566	-0.9456	0.0457
C	3.1000	-0.1375	0.5976
C	2.1945	0.4915	-0.2597
N	2.1865	0.4416	-1.6144
C	3.1346	-0.2812	-2.1031
N	4.0611	-0.9392	-1.3710
H	4.7731	-1.4879	-1.8387
H	3.1973	-0.3718	-3.1783
N	1.3303	1.1792	0.5336
C	1.7367	0.9339	1.8165
N	2.7787	0.1638	1.8899
H	1.2335	1.3525	2.6656
C	0.1979	1.9351	0.0820
C	-1.0929	1.1496	0.0621
C	-1.1952	-0.1225	0.6122
C	-2.3964	-0.8053	0.5767
C	-3.5021	-0.2073	-0.0117
C	-3.4171	1.0655	-0.5647
C	-2.2128	1.7355	-0.5253
H	-2.1338	2.7232	-0.9536
H	-4.2933	1.5048	-1.0161
N	-4.7581	-0.9157	-0.0513
O	-5.7021	-0.3545	-0.5642
O	-4.7917	-2.0267	0.4310
H	-2.4912	-1.7941	0.9984
H	-0.3379	-0.5898	1.0722
H	0.0748	2.8110	0.7294
H	0.4198	2.2787	-0.9336
29
0
O	5.0093	-1.4995	0.7565
C	4.1182	-0.9560	0.1539
C	3.0960	-0.0412	0.5927
C	2.1672	0.4475	-0.3287
N	2.1052	0.1609	-1.6523
C	3.0219	-0.6573	-2.0398
N	3.9666	-1.1967	-1.2371
H	4.6510	-1.8345	-1.6262
H	3.0408	-0.9366	-3.0837
N	1.3449	1.2816	0.3622
C	1.7968	1.2549	1.6529
N	2.8298	0.4880	1.8228
H	1.3333	1.8260	2.4329
C	0.2055	1.9686	-0.1744
C	-1.0780	1.1758	-0.0873
C	-2.1855	1.6269	-0.8028
C	-3.3826	0.9450	-0.7480
C	-3.4722	-0.2041	0.0294
C	-2.3786	-0.6674	0.7477
C	-1.1852	0.0271	0.6878
H	-0.3374	-0.3337	1.2499
H	-2.4769	-1.5619	1.3433
N	-4.7205	-0.9246	0.0891
O	-5.6558	-0.4785	-0.5396
O	-4.7567	-1.9302	0.7642
H	-4.2492	1.2807	-1.2964
H	-2.1027	2.5183	-1.4060
H	0.0799	2.9160	0.3623
H	0.4174	2.1867	-1.2259
