37
0
C	-3.1418	-0.4259	-2.0493
H	-3.2528	0.6419	-1.8791
H	-2.3308	-0.5823	-2.7579
H	-4.0618	-0.7953	-2.4957
C	-2.8589	-1.1624	-0.7387
C	-3.9915	-0.9204	0.2598
C	-4.1018	0.5298	0.6982
O	-5.1686	1.0114	1.0347
C	-2.8676	1.2792	0.7113
C	-1.6697	0.7623	0.3484
N	-0.5668	1.5699	0.3453
C	0.7733	1.2840	0.1091
C	1.3734	0.0819	0.4446
C	2.7304	-0.1383	0.1907
C	3.5192	0.8741	-0.3887
C	2.9097	2.0975	-0.6881
C	1.5733	2.2959	-0.4457
H	1.1239	3.2488	-0.6856
H	3.5199	2.8767	-1.1156
O	4.8194	0.7267	-0.6555
H	5.1009	-0.1723	-0.3746
C	3.3481	-1.4192	0.5371
O	4.5257	-1.6826	0.3604
O	2.5143	-2.3165	1.0729
H	3.0002	-3.1315	1.2747
H	0.8197	-0.7005	0.9324
H	-0.7707	2.5537	0.4647
C	-1.5496	-0.6566	-0.1116
H	-1.3117	-1.2961	0.7440
H	-0.7362	-0.7424	-0.8352
H	-2.9449	2.3121	1.0225
H	-3.8177	-1.5125	1.1639
H	-4.9526	-1.2304	-0.1537
C	-2.7282	-2.6602	-1.0238
H	-3.6463	-3.0425	-1.4632
H	-1.9130	-2.8470	-1.7197
H	-2.5321	-3.2148	-0.1086
37
0
C	3.1967	0.3316	-2.0760
H	4.1174	0.4300	-2.6457
H	2.9827	-0.7276	-1.9582
H	2.3904	0.7874	-2.6474
C	3.3429	1.0150	-0.7153
C	4.4591	0.3525	0.0934
C	4.1532	-1.0875	0.4684
O	5.0431	-1.9031	0.6297
C	2.7565	-1.4116	0.6387
C	1.7515	-0.5195	0.4720
N	0.4566	-0.9368	0.6034
C	-0.7376	-0.2244	0.5497
C	-1.8622	-0.8601	0.0436
C	-3.0977	-0.2142	-0.0132
C	-3.2182	1.1120	0.4482
C	-2.0854	1.7308	0.9845
C	-0.8764	1.0787	1.0458
H	-0.0388	1.5718	1.5094
H	-2.1905	2.7345	1.3640
O	-4.3645	1.7968	0.4133
H	-5.0638	1.2251	0.0258
C	-4.2756	-0.8992	-0.5488
O	-5.3800	-0.3907	-0.6422
O	-4.0595	-2.1576	-0.9425
H	-4.8842	-2.5389	-1.2830
H	-1.7947	-1.8750	-0.3172
H	0.3438	-1.9414	0.6430
C	2.0363	0.8983	0.0863
H	2.1369	1.5068	0.9905
H	1.2057	1.2963	-0.5007
H	2.5374	-2.4380	0.8997
H	4.6088	0.8989	1.0300
H	5.4044	0.3740	-0.4514
C	3.6649	2.4955	-0.9305
H	4.5907	2.6030	-1.4902
H	2.8689	2.9824	-1.4902
H	3.7807	3.0111	0.0206
37
0
C	-5.3394	-0.6712	-1.0567
H	-5.5058	-1.7461	-1.0900
H	-6.2226	-0.2030	-0.6294
H	-5.2219	-0.3102	-2.0764
C	-4.1045	-0.3431	-0.2148
C	-3.8662	1.1681	-0.2077
C	-2.6041	1.5550	0.5428
O	-2.5355	2.5888	1.1821
C	-1.4948	0.6344	0.4263
C	-1.5843	-0.5512	-0.2149
N	-0.5476	-1.4318	-0.3608
C	0.8124	-1.2312	-0.1338
C	1.4375	-0.0164	-0.3598
C	2.8094	0.1312	-0.1445
C	3.5830	-0.9644	0.2871
C	2.9445	-2.1942	0.4746
C	1.5923	-2.3236	0.2693
H	1.1195	-3.2835	0.4215
H	3.5432	-3.0343	0.7882
O	4.8973	-0.8866	0.5140
H	5.1944	0.0331	0.3322
C	3.4590	1.4253	-0.3693
O	4.6496	1.6311	-0.2002
O	2.6414	2.3942	-0.7833
H	3.1372	3.2206	-0.8945
H	0.8802	0.8295	-0.7251
H	-0.8044	-2.3864	-0.5707
C	-2.8718	-1.0145	-0.8343
H	-2.9593	-2.1013	-0.7437
H	-2.8364	-0.7798	-1.9041
H	-0.5853	0.9293	0.9260
H	-4.7109	1.6959	0.2376
H	-3.7550	1.5266	-1.2357
C	-4.3193	-0.8484	1.2133
H	-3.4491	-0.6431	1.8315
H	-5.1778	-0.3541	1.6611
H	-4.5035	-1.9211	1.2161
37
0
C	-5.2561	-1.5990	-0.8439
H	-6.2052	-1.4369	-0.3393
H	-5.3493	-1.2431	-1.8679
H	-5.0616	-2.6694	-0.8688
C	-4.1322	-0.8642	-0.1100
C	-4.4056	0.6410	-0.1142
C	-3.2827	1.4404	0.5231
O	-3.5044	2.4577	1.1540
C	-1.9461	0.9296	0.3114
C	-1.6937	-0.2351	-0.3246
N	-0.4401	-0.7295	-0.5611
C	0.7894	-0.0845	-0.4409
C	1.9037	-0.8263	-0.0861
C	3.1668	-0.2361	0.0029
C	3.3191	1.1376	-0.2710
C	2.1895	1.8674	-0.6557
C	0.9543	1.2728	-0.7480
H	0.1080	1.8504	-1.0826
H	2.3186	2.9122	-0.8883
O	4.4932	1.7700	-0.1974
H	5.1841	1.1265	0.0754
C	4.3364	-1.0288	0.3806
O	5.4647	-0.5791	0.4907
O	4.0870	-2.3237	0.6058
H	4.9103	-2.7730	0.8537
H	1.8119	-1.8801	0.1282
H	-0.3807	-1.7237	-0.7320
C	-2.8035	-1.1069	-0.8378
H	-2.5211	-2.1601	-0.7505
H	-2.9361	-0.8939	-1.9045
H	-1.1458	1.5160	0.7360
H	-5.3354	0.8720	0.4077
H	-4.5080	0.9921	-1.1456
C	-4.0481	-1.3799	1.3281
H	-3.8662	-2.4530	1.3397
H	-3.2465	-0.8852	1.8706
H	-4.9814	-1.1868	1.8512
37
0
C	5.3202	0.8708	0.7873
H	5.6600	1.4238	-0.0860
H	5.2770	1.5556	1.6319
H	6.0552	0.1013	1.0099
C	3.9495	0.2390	0.5352
C	4.0273	-0.7121	-0.6593
C	2.6786	-1.2619	-1.0928
O	2.5923	-2.3347	-1.6626
C	1.5261	-0.4295	-0.8276
C	1.6076	0.7702	-0.2124
N	0.5404	1.5812	0.0607
C	-0.8214	1.3009	-0.0428
C	-1.3509	0.0596	0.2664
C	-2.7249	-0.1729	0.1763
C	-3.5966	0.8642	-0.2105
C	-3.0514	2.1231	-0.4810
C	-1.6964	2.3355	-0.3993
H	-1.2965	3.3163	-0.6146
H	-3.7242	2.9183	-0.7592
O	-4.9185	0.7048	-0.3188
H	-5.1435	-0.2252	-0.0911
C	-3.2743	-1.4950	0.4881
O	-4.4605	-1.7739	0.4280
O	-2.3676	-2.4026	0.8527
H	-2.8015	-3.2526	1.0268
H	-0.7147	-0.7418	0.6020
H	0.7608	2.5518	0.2353
C	2.9347	1.3407	0.1986
H	2.8049	1.9991	1.0617
H	3.3283	1.9459	-0.6255
H	0.5813	-0.8179	-1.1738
H	4.6906	-1.5526	-0.4484
H	4.4391	-0.1818	-1.5241
C	3.5082	-0.5212	1.7873
H	2.5419	-0.9943	1.6329
H	4.2313	-1.2962	2.0294
H	3.4326	0.1532	2.6381
37
0
C	-4.0479	-0.0571	-1.7328
H	-4.9963	0.4221	-1.9626
H	-3.2726	0.7046	-1.7380
H	-3.8307	-0.7788	-2.5179
C	-4.1232	-0.7495	-0.3706
C	-4.4023	0.2767	0.7280
C	-3.2673	1.2628	0.9476
O	-3.4797	2.3748	1.3962
C	-1.9351	0.7946	0.6339
C	-1.6820	-0.4402	0.1488
N	-0.4382	-0.9117	-0.1714
C	0.7661	-0.2130	-0.2488
C	1.9399	-0.8529	0.1115
C	3.1754	-0.2097	0.0058
C	3.2376	1.1137	-0.4740
C	2.0467	1.7364	-0.8620
C	0.8390	1.0887	-0.7621
H	-0.0581	1.5779	-1.1050
H	2.1055	2.7393	-1.2531
O	4.3811	1.7932	-0.5924
H	5.1225	1.2230	-0.2904
C	4.4090	-0.8943	0.3912
O	5.5189	-0.3913	0.3392
O	4.2426	-2.1508	0.8191
H	5.1041	-2.5280	1.0570
H	1.9172	-1.8664	0.4821
H	-0.3465	-1.9174	-0.2079
C	-2.7880	-1.4362	-0.0503
H	-2.9022	-2.0232	0.8677
H	-2.5253	-2.1270	-0.8558
H	-1.1365	1.4923	0.8326
H	-4.5543	-0.2392	1.6816
H	-5.3123	0.8403	0.5156
C	-5.2387	-1.7966	-0.3998
H	-5.3149	-2.3105	0.5563
H	-6.1949	-1.3235	-0.6089
H	-5.0484	-2.5375	-1.1736
37
0
C	-2.2295	-1.8789	-0.6977
H	-2.9368	-2.6676	-0.9430
H	-2.2329	-1.1565	-1.5103
H	-1.2379	-2.3223	-0.6262
C	-2.6176	-1.2150	0.6249
C	-4.0087	-0.5858	0.5181
C	-4.0779	0.5954	-0.4353
O	-5.1119	0.8785	-1.0133
C	-2.8598	1.3551	-0.6028
C	-1.6881	1.0284	-0.0117
N	-0.5777	1.8048	-0.2015
C	0.7630	1.4498	-0.0470
C	1.2275	0.1828	-0.3574
C	2.5739	-0.1483	-0.1859
C	3.4880	0.8234	0.2673
C	3.0121	2.1123	0.5317
C	1.6810	2.4175	0.3817
H	1.3314	3.4171	0.5946
H	3.7206	2.8555	0.8602
O	4.7877	0.5745	0.4460
H	4.9693	-0.3598	0.2002
C	3.0488	-1.4994	-0.4873
O	4.2116	-1.8545	-0.3945
O	2.0948	-2.3529	-0.8734
H	2.4889	-3.2196	-1.0598
H	0.5622	-0.5615	-0.7634
H	-0.7457	2.7134	-0.6111
C	-1.6234	-0.0996	0.9737
H	-1.8922	0.3169	1.9518
H	-0.6150	-0.4988	1.0648
H	-2.9155	2.1963	-1.2802
H	-4.3148	-0.2123	1.5007
H	-4.7504	-1.3227	0.2052
C	-2.6089	-2.2669	1.7359
H	-2.8709	-1.8227	2.6938
H	-3.3267	-3.0538	1.5174
H	-1.6232	-2.7187	1.8260
37
0
C	-3.5065	-2.1843	-1.6057
H	-3.4774	-1.7668	-2.6099
H	-2.7359	-2.9488	-1.5303
H	-4.4739	-2.6593	-1.4620
C	-3.2879	-1.0942	-0.5545
C	-4.3720	-0.0225	-0.6876
C	-4.1486	1.1872	0.2043
O	-5.0847	1.8485	0.6166
C	-2.7736	1.5066	0.5117
C	-1.7228	0.7564	0.1083
N	-0.4463	1.1384	0.4146
C	0.7187	0.3688	0.4054
C	1.9108	0.9400	-0.0058
C	3.0991	0.2065	-0.0033
C	3.0937	-1.1387	0.4177
C	1.8882	-1.6923	0.8610
C	0.7291	-0.9538	0.8692
H	-0.1768	-1.3854	1.2663
H	1.9000	-2.7110	1.2143
O	4.1883	-1.9030	0.4317
H	4.9507	-1.3725	0.1094
C	4.3561	0.8187	-0.4372
O	5.4248	0.2328	-0.4791
O	4.2579	2.1018	-0.7961
H	5.1284	2.4318	-1.0691
H	1.9354	1.9671	-0.3349
H	-0.3403	2.0914	0.7333
C	-1.9286	-0.4236	-0.7933
H	-1.1219	-1.1487	-0.6981
H	-1.8982	-0.0466	-1.8225
H	-2.6163	2.3789	1.1312
H	-5.3592	-0.4331	-0.4691
H	-4.3931	0.3476	-1.7177
C	-3.3324	-1.7241	0.8392
H	-3.1721	-0.9738	1.6096
H	-4.3019	-2.1850	1.0118
H	-2.5693	-2.4946	0.9344
37
0
C	-3.1691	-0.4663	-2.0366
H	-4.0914	-0.8477	-2.4680
H	-3.2830	0.6042	-1.8857
H	-2.3637	-0.6328	-2.7493
C	-2.8715	-1.1770	-0.7149
C	-3.9948	-0.9173	0.2897
C	-4.1048	0.5414	0.6965
O	-5.1699	1.0309	1.0269
C	-2.8702	1.2912	0.6884
C	-1.6747	0.7677	0.3280
N	-0.5728	1.5780	0.3049
C	0.7687	1.2928	0.0874
C	1.3678	0.0890	0.4165
C	2.7292	-0.1412	0.1860
C	3.5244	0.8738	-0.3690
C	2.9195	2.0996	-0.6648
C	1.5806	2.3067	-0.4442
H	1.1425	3.2650	-0.6830
H	3.5414	2.8787	-1.0756
O	4.8365	0.7602	-0.6337
H	5.1530	-0.1187	-0.3726
C	3.2152	-1.4757	0.5723
O	2.5225	-2.3524	1.0240
O	4.5449	-1.6800	0.3818
H	4.7722	-2.5796	0.6647
H	0.8170	-0.7073	0.8867
H	-0.7787	2.5627	0.4133
C	-1.5568	-0.6575	-0.1108
H	-1.3067	-1.2832	0.7513
H	-0.7515	-0.7535	-0.8421
H	-2.9460	2.3295	0.9824
H	-3.8085	-1.4886	1.2046
H	-4.9590	-1.2400	-0.1066
C	-2.7403	-2.6796	-0.9721
H	-1.9323	-2.8778	-1.6731
H	-2.5307	-3.2151	-0.0487
H	-3.6623	-3.0733	-1.3929
37
0
C	-5.2583	-1.6239	-0.8074
H	-6.2035	-1.4643	-0.2947
H	-5.3649	-1.2792	-1.8339
H	-5.0555	-2.6929	-0.8234
C	-4.1329	-0.8730	-0.0925
C	-4.4180	0.6300	-0.1094
C	-3.2943	1.4454	0.5056
O	-3.5167	2.4708	1.1232
C	-1.9563	0.9402	0.2900
C	-1.7011	-0.2302	-0.3345
N	-0.4469	-0.7213	-0.5736
C	0.7815	-0.0771	-0.4507
C	1.8955	-0.8195	-0.0984
C	3.1661	-0.2440	0.0028
C	3.3216	1.1271	-0.2605
C	2.1958	1.8607	-0.6472
C	0.9546	1.2797	-0.7503
H	0.1162	1.8677	-1.0861
H	2.3350	2.9059	-0.8726
O	4.4873	1.7904	-0.1861
H	5.1952	1.1880	0.0910
C	4.2525	-1.1595	0.3838
O	4.1187	-2.3433	0.5681
O	5.4723	-0.5767	0.5236
H	6.1200	-1.2523	0.7784
H	1.8119	-1.8760	0.1107
H	-0.3838	-1.7177	-0.7313
C	-2.8097	-1.1128	-0.8313
H	-2.5198	-2.1634	-0.7387
H	-2.9537	-0.9086	-1.8982
H	-1.1574	1.5357	0.7041
H	-5.3434	0.8595	0.4209
H	-4.5356	0.9693	-1.1433
C	-4.0301	-1.3735	1.3497
H	-3.8383	-2.4447	1.3702
H	-3.2276	-0.8666	1.8795
H	-4.9599	-1.1835	1.8802
37
0
C	-3.6874	-2.4961	0.9165
H	-4.6199	-2.6038	1.4649
H	-3.7928	-3.0091	-0.0373
H	-2.8989	-2.9855	1.4844
C	-3.3612	-1.0154	0.7090
C	-4.4695	-0.3483	-0.1065
C	-4.1583	1.0929	-0.4730
O	-5.0460	1.9093	-0.6415
C	-2.7594	1.4162	-0.6282
C	-1.7574	0.5215	-0.4578
N	-0.4605	0.9374	-0.5746
C	0.7311	0.2228	-0.5320
C	1.8614	0.8544	-0.0351
C	3.1053	0.2203	0.0155
C	3.2233	-1.1003	-0.4499
C	2.0867	-1.7194	-0.9761
C	0.8710	-1.0787	-1.0294
H	0.0348	-1.5798	-1.4864
H	2.1964	-2.7223	-1.3566
O	4.3611	-1.8146	-0.4424
H	5.0827	-1.2855	-0.0680
C	4.2096	1.0227	0.5669
O	4.1060	2.1614	0.9463
O	5.4070	0.3833	0.6290
H	6.0696	0.9851	1.0028
H	1.8069	1.8693	0.3309
H	-0.3434	1.9421	-0.5981
C	-2.0480	-0.8979	-0.0818
H	-1.2229	-1.2998	0.5102
H	-2.1428	-1.5021	-0.9895
H	-2.5364	2.4436	-0.8814
H	-5.4194	-0.3704	0.4301
H	-4.6120	-0.8908	-1.0465
C	-3.2251	-0.3371	2.0733
H	-2.4242	-0.7961	2.6498
H	-3.0083	0.7221	1.9613
H	-4.1508	-0.4361	2.6350
37
0
C	-5.2390	-1.8124	0.3804
H	-6.1968	-1.3464	0.5982
H	-5.3150	-2.3131	-0.5826
H	-5.0437	-2.5632	1.1433
C	-4.1280	-0.7602	0.3635
C	-4.4138	0.2800	-0.7201
C	-3.2838	1.2744	-0.9266
O	-3.5020	2.3929	-1.3563
C	-1.9489	0.8070	-0.6240
C	-1.6892	-0.4336	-0.1572
N	-0.4430	-0.9051	0.1532
C	0.7595	-0.2069	0.2381
C	1.9350	-0.8464	-0.1154
C	3.1795	-0.2171	-0.0105
C	3.2435	1.1024	0.4673
C	2.0535	1.7275	0.8522
C	0.8386	1.0930	0.7520
H	-0.0532	1.5915	1.0946
H	2.1208	2.7301	1.2432
O	4.3768	1.8104	0.6020
H	5.1354	1.2827	0.3071
C	4.3391	-1.0244	-0.4198
O	4.2805	-2.1695	-0.7918
O	5.5365	-0.3850	-0.3524
H	6.2368	-0.9904	-0.6422
H	1.9221	-1.8610	-0.4864
H	-0.3464	-1.9111	0.1710
C	-2.7906	-1.4367	0.0309
H	-2.5230	-2.1373	0.8261
H	-2.9042	-2.0115	-0.8947
H	-1.1540	1.5106	-0.8163
H	-5.3265	0.8359	-0.4988
H	-4.5641	-0.2231	-1.6808
C	-4.0528	-0.0865	1.7350
H	-3.8309	-0.8182	2.5095
H	-3.2806	0.6783	1.7493
H	-5.0028	0.3854	1.9735
37
0
C	-5.3427	-0.6059	-1.0919
H	-6.2249	-0.1475	-0.6521
H	-5.2177	-0.2090	-2.0972
H	-5.5159	-1.6778	-1.1649
C	-4.1098	-0.3165	-0.2330
C	-3.8602	1.1918	-0.1721
C	-2.6026	1.5403	0.6045
O	-2.5396	2.5359	1.3012
C	-1.4936	0.6240	0.4471
C	-1.5911	-0.5396	-0.2304
N	-0.5593	-1.4247	-0.3951
C	0.7981	-1.2332	-0.1508
C	1.4347	-0.0256	-0.3801
C	2.8050	0.1315	-0.1504
C	3.5628	-0.9579	0.3111
C	2.9179	-2.1836	0.4981
C	1.5696	-2.3221	0.2727
H	1.0978	-3.2819	0.4269
H	3.5141	-3.0180	0.8311
O	4.8805	-0.9161	0.5719
H	5.2191	-0.0198	0.4190
C	3.3505	1.4662	-0.4525
O	2.7259	2.3661	-0.9512
O	4.6609	1.6358	-0.1290
H	4.9274	2.5408	-0.3549
H	0.8931	0.8247	-0.7624
H	-0.8216	-2.3752	-0.6161
C	-2.8787	-0.9756	-0.8686
H	-2.9732	-2.0642	-0.8139
H	-2.8370	-0.7063	-1.9299
H	-0.5800	0.8988	0.9510
H	-4.7053	1.7106	0.2830
H	-3.7348	1.5840	-1.1858
C	-4.3357	-0.8693	1.1757
H	-4.5298	-1.9398	1.1404
H	-3.4662	-0.6936	1.8041
H	-5.1914	-0.3827	1.6372
37
0
C	-2.6050	-2.3151	-1.6705
H	-3.3205	-3.0977	-1.4303
H	-2.8678	-1.8981	-2.6407
H	-1.6180	-2.7664	-1.7461
C	-2.6162	-1.2339	-0.5883
C	-4.0116	-0.6117	-0.4912
C	-4.0851	0.5991	0.4231
O	-5.1209	0.9000	0.9887
C	-2.8683	1.3664	0.5711
C	-1.6965	1.0279	-0.0121
N	-0.5877	1.8126	0.1622
C	0.7537	1.4610	0.0285
C	1.2201	0.1931	0.3299
C	2.5686	-0.1469	0.1794
C	3.4858	0.8284	-0.2449
C	3.0124	2.1194	-0.4997
C	1.6805	2.4317	-0.3714
H	1.3410	3.4357	-0.5789
H	3.7298	2.8630	-0.8076
O	4.8001	0.6136	-0.4215
H	5.0210	-0.3022	-0.1902
C	2.9056	-1.5449	0.4921
O	2.0993	-2.3942	0.7770
O	4.2291	-1.8444	0.4310
H	4.3548	-2.7803	0.6526
H	0.5591	-0.5659	0.7172
H	-0.7616	2.7299	0.5497
C	-1.6332	-0.1203	-0.9736
H	-0.6242	-0.5161	-1.0676
H	-1.9165	0.2728	-1.9574
H	-2.9262	2.2231	1.2288
H	-4.7454	-1.3437	-0.1494
H	-4.3279	-0.2728	-1.4832
C	-2.2148	-1.8599	0.7487
H	-2.2192	-1.1172	1.5429
H	-2.9146	-2.6475	1.0181
H	-1.2208	-2.2984	0.6835
37
0
C	-5.3270	-0.8203	0.8208
H	-6.0574	-0.0397	1.0189
H	-5.6717	-1.4005	-0.0327
H	-5.2855	-1.4764	1.6879
C	-3.9534	-0.2044	0.5450
C	-4.0294	0.7062	-0.6807
C	-2.6794	1.2299	-1.1425
O	-2.5930	2.2695	-1.7700
C	-1.5281	0.4080	-0.8383
C	-1.6166	-0.7712	-0.1872
N	-0.5525	-1.5819	0.1047
C	0.8081	-1.3080	-0.0167
C	1.3468	-0.0693	0.2850
C	2.7197	0.1744	0.1790
C	3.5804	-0.8591	-0.2270
C	3.0309	-2.1180	-0.4853
C	1.6789	-2.3411	-0.3831
H	1.2821	-3.3245	-0.5908
H	3.7042	-2.9091	-0.7741
O	4.9106	-0.7335	-0.3697
H	5.1789	0.1785	-0.1758
C	3.1530	1.5344	0.5436
O	2.4318	2.3870	0.9923
O	4.4744	1.7873	0.3428
H	4.6636	2.7029	0.6013
H	0.7234	0.7394	0.6309
H	-0.7767	-2.5487	0.2946
C	-2.9455	-1.3223	0.2428
H	-2.8171	-1.9526	1.1268
H	-3.3438	-1.9521	-0.5603
H	-0.5801	0.7832	-1.1905
H	-4.6839	1.5593	-0.4947
H	-4.4516	0.1510	-1.5247
C	-3.5053	0.5948	1.7700
H	-3.4314	-0.0512	2.6428
H	-2.5371	1.0577	1.5985
H	-4.2238	1.3812	1.9876
37
0
C	3.5348	2.1930	-1.5855
H	4.5043	2.6614	-1.4349
H	3.5066	1.7836	-2.5931
H	2.7682	2.9613	-1.5067
C	3.3065	1.0957	-0.5439
C	4.3858	0.0196	-0.6812
C	4.1535	-1.1946	0.2020
O	5.0851	-1.8599	0.6176
C	2.7754	-1.5119	0.4985
C	1.7297	-0.7535	0.0973
N	0.4502	-1.1332	0.3956
C	-0.7126	-0.3635	0.3907
C	-1.9079	-0.9342	-0.0104
C	-3.1062	-0.2138	-0.0062
C	-3.1015	1.1279	0.4113
C	-1.8950	1.6851	0.8453
C	-0.7277	0.9591	0.8512
H	0.1747	1.4010	1.2441
H	-1.9139	2.7048	1.1955
O	-4.1850	1.9206	0.4440
H	-4.9641	1.4317	0.1358
C	-4.2980	-0.9540	-0.4524
O	-4.3002	-2.1114	-0.7865
O	-5.4490	-0.2314	-0.4688
H	-6.1754	-0.7975	-0.7735
H	-1.9436	-1.9624	-0.3386
H	0.3361	-2.0941	0.6869
C	1.9450	0.4335	-0.7931
H	1.1414	1.1616	-0.6959
H	1.9170	0.0647	-1.8254
H	2.6113	-2.3891	1.1093
H	5.3744	0.4239	-0.4573
H	4.4075	-0.3437	-1.7137
C	3.3485	1.7140	0.8550
H	2.5900	2.4887	0.9532
H	3.1798	0.9586	1.6185
H	4.3202	2.1672	1.0358
