27
0
C	4.2535	0.7881	-0.7683
C	2.9978	0.1753	-0.2261
C	2.4766	0.5728	0.9972
C	1.3255	-0.0075	1.4989
C	0.6662	-1.0015	0.7885
C	1.1894	-1.4074	-0.4331
C	2.3394	-0.8257	-0.9311
H	2.7314	-1.1510	-1.8839
H	0.6883	-2.1779	-1.0000
C	-0.6289	-1.5719	1.2966
H	-0.6560	-1.5479	2.3882
H	-0.7476	-2.6048	0.9614
C	-1.8221	-0.7802	0.7415
S	-1.7306	0.9801	1.1256
C	-1.5150	1.3223	-0.6005
N	-1.6045	0.3298	-1.4085
C	-1.8301	-0.8705	-0.8115
O	-2.0006	-1.9204	-1.3696
N	-1.2984	2.5764	-0.9807
H	-1.2224	3.3117	-0.3009
H	-1.1777	2.7732	-1.9595
H	-2.7583	-1.1795	1.1375
H	0.9334	0.3185	2.4521
H	2.9744	1.3463	1.5651
H	5.1013	0.1292	-0.5781
H	4.1792	0.9327	-1.8442
H	4.4562	1.7461	-0.2952
27
0
C	-5.2753	-0.7315	0.4730
C	-3.8826	-0.2906	0.1391
C	-3.3873	0.9143	0.6236
C	-2.1115	1.3361	0.3024
C	-1.2963	0.5650	-0.5166
C	-1.7874	-0.6393	-1.0002
C	-3.0646	-1.0600	-0.6769
H	-3.4298	-2.0008	-1.0636
H	-1.1652	-1.2549	-1.6342
C	0.1066	1.0048	-0.8223
H	0.1579	2.0926	-0.9161
H	0.4531	0.5590	-1.7579
C	1.0645	0.6087	0.3042
S	1.3374	-1.1723	0.4011
C	3.0659	-0.9008	0.1002
N	3.4539	0.3153	-0.0330
C	2.4663	1.2438	0.0709
O	2.5983	2.4345	-0.0167
N	3.8754	-1.9521	0.0269
H	3.5196	-2.8820	0.1580
H	4.8585	-1.7992	-0.1199
H	0.6692	0.9480	1.2650
H	-1.7423	2.2762	0.6880
H	-4.0095	1.5279	1.2596
H	-5.5337	-0.4574	1.4937
H	-5.9891	-0.2474	-0.1945
H	-5.3810	-1.8076	0.3584
27
0
C	-5.2465	-0.6142	-0.3488
C	-3.8520	-0.1623	-0.0377
C	-3.3084	0.9581	-0.6516
C	-2.0132	1.3552	-0.3788
C	-1.2279	0.6426	0.5173
C	-1.7691	-0.4759	1.1347
C	-3.0643	-0.8710	0.8605
H	-3.4694	-1.7467	1.3470
H	-1.1715	-1.0451	1.8318
C	0.1877	1.0682	0.7874
H	0.5549	0.6066	1.7077
H	0.2374	2.1543	0.9029
C	1.1069	0.6606	-0.3732
S	2.8029	1.2174	-0.0955
C	3.3163	-0.4788	0.0252
N	2.4243	-1.3726	-0.1928
C	1.1868	-0.8866	-0.4963
O	0.2342	-1.5430	-0.8160
N	4.5839	-0.7417	0.3257
H	5.2451	0.0040	0.4497
H	4.8882	-1.7000	0.3519
H	0.7409	1.0838	-1.3105
H	-1.6090	2.2325	-0.8657
H	-3.9044	1.5255	-1.3526
H	-5.8293	0.1917	-0.7884
H	-5.2177	-1.4409	-1.0591
H	-5.7491	-0.9645	0.5505
27
0
C	-5.3653	-0.7757	0.1149
C	-3.9552	-0.2769	0.0250
C	-3.0362	-0.5388	1.0300
C	-1.7294	-0.0907	0.9399
C	-1.3026	0.6316	-0.1643
C	-2.2228	0.8895	-1.1756
C	-3.5265	0.4452	-1.0826
H	-4.2229	0.6607	-1.8806
H	-1.9100	1.4505	-2.0451
C	0.0967	1.1698	-0.3178
H	0.1016	2.2396	-0.0793
H	0.3985	1.0724	-1.3657
C	1.1598	0.5190	0.5581
S	1.3845	-1.2383	0.2080
C	3.0629	-0.9071	-0.2631
N	3.4705	0.3064	-0.1683
C	2.5389	1.1875	0.2836
O	2.7006	2.3653	0.4561
N	3.8198	-1.9144	-0.6851
H	3.4519	-2.8478	-0.7300
H	4.7762	-1.7318	-0.9363
H	0.9197	0.6377	1.6168
H	-1.0496	-0.3188	1.7469
H	-3.3437	-1.1001	1.9009
H	-5.4629	-1.7181	-0.4253
H	-5.6515	-0.9480	1.1496
H	-6.0564	-0.0624	-0.3292
27
0
C	5.4823	0.1166	-0.6851
C	4.0527	-0.0218	-0.2568
C	3.2244	1.0938	-0.1947
C	1.9113	0.9812	0.2179
C	1.3913	-0.2562	0.5812
C	2.2113	-1.3723	0.5147
C	3.5276	-1.2548	0.1028
H	4.1529	-2.1355	0.0596
H	1.8214	-2.3429	0.7886
C	-0.0456	-0.3718	1.0087
H	-0.2519	0.3563	1.7982
H	-0.2335	-1.3693	1.4103
C	-1.0038	-0.1066	-0.1678
S	-2.2989	-1.3546	-0.3386
C	-3.5265	-0.0869	-0.1583
N	-3.1036	1.1155	-0.0137
C	-1.7503	1.2496	-0.0038
O	-1.1467	2.2790	0.1350
N	-4.8100	-0.4289	-0.1850
H	-5.0821	-1.3877	-0.3082
H	-5.5070	0.2909	-0.0997
H	-0.4444	-0.0812	-1.1068
H	1.2747	1.8530	0.2562
H	3.6160	2.0616	-0.4735
H	5.9053	-0.8490	-0.9514
H	5.5655	0.7862	-1.5390
H	6.0759	0.5372	0.1271
27
0
C	-5.4855	-0.0041	0.7141
C	-4.0558	-0.0665	0.2690
C	-3.2617	1.0754	0.2877
C	-1.9501	1.0336	-0.1418
C	-1.3976	-0.1559	-0.6042
C	-2.1828	-1.2983	-0.6175
C	-3.4978	-1.2520	-0.1878
H	-4.0968	-2.1517	-0.2079
H	-1.7663	-2.2326	-0.9680
C	0.0380	-0.1849	-1.0475
H	0.2139	0.6334	-1.7515
H	0.2564	-1.1250	-1.5572
C	0.9966	-0.0113	0.1453
S	2.1826	-1.3598	0.3300
C	3.5110	-0.1927	0.1782
N	3.1888	1.0409	0.0356
C	1.8511	1.2821	0.0026
O	1.3283	2.3543	-0.1395
N	4.7622	-0.6368	0.2226
H	4.9549	-1.6152	0.3414
H	5.5159	0.0253	0.1509
H	0.4272	0.0586	1.0761
H	-1.3397	1.9250	-0.1213
H	-3.6795	2.0069	0.6424
H	-6.0987	0.4495	-0.0652
H	-5.8749	-0.9987	0.9175
H	-5.5840	0.6042	1.6111
