26
0
O	-1.2642	-3.2780	-0.0022
C	-1.2146	-2.0727	-0.0011
N	-2.3673	-1.3239	-0.0007
C	-2.5181	0.0405	0.0009
N	-1.4399	0.8133	0.0071
C	-1.6428	2.1195	0.0083
C	-2.9144	2.6723	0.0034
C	-3.9706	1.7698	-0.0025
N	-3.7811	0.4636	-0.0037
H	-5.0031	2.0932	-0.0065
H	-3.0739	3.7366	0.0042
H	-0.7478	2.7272	0.0134
H	-3.2392	-1.8442	-0.0027
C	0.0696	-1.3055	-0.0009
C	0.6844	-0.9885	-1.2087
C	1.8938	-0.3241	-1.2121
C	2.4897	0.0070	-0.0010
C	1.8995	-0.3345	1.2100
C	0.6901	-0.9989	1.2065
H	0.2191	-1.2739	2.1374
H	2.3974	-0.0742	2.1316
N	3.7439	0.7178	-0.0009
O	4.2299	1.0026	-1.0747
O	4.2348	0.9937	1.0730
H	2.3874	-0.0558	-2.1337
H	0.2091	-1.2553	-2.1398
26
0
O	-1.1477	-1.9292	-0.3846
C	-0.7834	-0.8043	-0.1643
N	-1.6220	0.2617	0.0727
C	-3.0011	0.2653	0.0730
N	-3.5361	1.4347	0.4276
C	-4.8551	1.5001	0.4419
C	-5.6533	0.4149	0.1073
C	-4.9828	-0.7470	-0.2504
N	-3.6651	-0.8247	-0.2698
H	-5.5062	-1.6505	-0.5330
H	-6.7282	0.4731	0.1227
H	-5.2739	2.4554	0.7311
H	-1.2263	1.1523	0.3439
C	0.6695	-0.4339	-0.1026
C	1.5574	-1.4047	0.3585
C	2.9106	-1.1410	0.4233
C	3.3752	0.1003	0.0056
C	2.5069	1.0687	-0.4831
C	1.1528	0.8002	-0.5340
H	0.4829	1.5436	-0.9394
H	2.9064	2.0146	-0.8160
N	4.7904	0.3885	0.0702
O	5.5192	-0.4771	0.5013
O	5.1572	1.4792	-0.3086
H	3.6141	-1.8752	0.7850
H	1.1640	-2.3629	0.6607
26
0
O	-1.1249	-1.8938	0.0033
C	-0.7819	-0.7389	0.0032
N	-1.6596	0.3190	0.0030
C	-3.0373	0.2682	0.0009
N	-3.6624	-0.8960	-0.0025
C	-4.9821	-0.8606	-0.0049
C	-5.6938	0.3313	-0.0041
C	-4.9348	1.4935	-0.0004
N	-3.6144	1.4716	0.0020
H	-5.3873	2.4768	0.0007
H	-6.7701	0.3549	-0.0061
H	-5.4729	-1.8246	-0.0078
H	-1.3126	1.2679	0.0045
C	0.6728	-0.3558	0.0027
C	1.5733	-1.4235	0.0014
C	2.9352	-1.2063	-0.0000
C	3.4053	0.1010	-0.0002
C	2.5281	1.1778	0.0014
C	1.1654	0.9490	0.0029
H	0.5112	1.8075	0.0040
H	2.9273	2.1808	0.0014
N	4.8294	0.3485	-0.0021
O	5.1967	1.5031	-0.0024
O	5.5648	-0.6134	-0.0033
H	3.6394	-2.0241	-0.0012
H	1.1705	-2.4250	0.0014
