30
0
C	3.2811	2.1578	-0.0000
C	3.3692	0.6696	-0.0000
C	4.6074	0.0403	-0.0000
C	4.7229	-1.3383	0.0000
C	3.5846	-2.1283	0.0000
C	2.3422	-1.5295	0.0000
C	2.2209	-0.1380	-0.0000
C	0.8927	0.4309	0.0000
N	0.5412	1.6854	0.0000
N	-0.7963	1.7304	0.0000
C	-1.2261	0.5022	0.0000
C	-2.6023	0.0644	-0.0000
C	-2.9175	-1.2932	-0.0000
C	-4.2409	-1.6906	-0.0000
C	-5.2523	-0.7433	-0.0000
C	-4.9403	0.6081	0.0000
C	-3.6215	1.0168	0.0000
H	-3.3534	2.0612	0.0000
H	-5.7307	1.3436	0.0000
H	-6.2851	-1.0588	-0.0000
H	-4.4853	-2.7425	-0.0000
H	-2.1243	-2.0260	-0.0000
O	-0.1983	-0.3777	-0.0000
H	1.4479	-2.1346	0.0000
H	3.6664	-3.2047	0.0000
H	5.7006	-1.7971	0.0000
H	5.5012	0.6475	-0.0000
H	4.2733	2.6019	-0.0001
H	2.7285	2.5043	-0.8708
H	2.7286	2.5043	0.8707
30
0
C	-1.7096	-2.2507	-0.0018
C	-2.7027	-1.1312	-0.0005
C	-4.0620	-1.4178	0.0007
C	-5.0155	-0.4163	0.0019
C	-4.6228	0.9134	0.0018
C	-3.2804	1.2259	0.0005
C	-2.3136	0.2162	-0.0005
C	-0.9336	0.6476	-0.0011
N	-0.5368	1.8911	-0.0011
N	0.7988	1.8885	-0.0010
C	1.1848	0.6454	-0.0011
C	2.5424	0.1540	-0.0004
C	2.8038	-1.2152	-0.0003
C	4.1105	-1.6645	0.0007
C	5.1585	-0.7579	0.0016
C	4.9001	0.6048	0.0014
C	3.5985	1.0653	0.0004
H	3.3716	2.1194	0.0003
H	5.7190	1.3085	0.0022
H	6.1781	-1.1140	0.0025
H	4.3132	-2.7253	0.0008
H	1.9826	-1.9166	-0.0011
O	0.1240	-0.1970	-0.0011
H	-2.9420	2.2497	0.0004
H	-5.3620	1.6998	0.0026
H	-6.0643	-0.6734	0.0030
H	-4.3774	-2.4515	0.0009
H	-2.2192	-3.2113	-0.0014
H	-1.0700	-2.1963	-0.8821
H	-1.0679	-2.1967	0.8769
