35
0
C	-3.2536	-1.4987	1.7424
C	-2.3775	-0.4830	1.0886
N	-1.1093	-0.4680	1.4551
C	-0.3141	0.4143	0.8791
N	1.0236	0.5721	1.0957
C	1.3907	1.5366	0.2992
N	0.3710	2.0550	-0.4504
C	-0.7506	1.3471	-0.1019
C	-2.0724	1.3540	-0.4957
C	-2.8768	0.4106	0.1245
Br	-4.7146	0.3359	-0.3681
H	-2.4637	2.0368	-1.2349
H	0.4461	2.8107	-1.1104
S	3.0085	2.1322	0.1424
C	3.8848	0.8892	1.1541
H	4.4294	1.4217	1.9322
H	3.1037	0.2572	1.5745
C	4.8771	0.1396	0.2832
O	6.0717	0.2976	0.3819
N	4.3442	-0.6760	-0.6606
C	2.9940	-1.0632	-0.8354
C	2.2934	-0.6377	-1.9585
C	0.9815	-1.0353	-2.1488
C	0.3606	-1.8709	-1.2372
C	1.0757	-2.2930	-0.1301
C	2.3823	-1.8982	0.0913
H	2.9108	-2.2450	0.9647
F	0.4953	-3.1300	0.7408
H	-0.6581	-2.1970	-1.3721
H	0.4389	-0.6953	-3.0179
H	2.7806	0.0081	-2.6735
H	5.0163	-1.0584	-1.3141
H	-4.0528	-1.0116	2.3001
H	-3.7132	-2.1455	0.9959
H	-2.6516	-2.0972	2.4186
35
0
C	-2.8796	-1.9437	-1.4612
C	-2.3936	-0.6802	-0.8357
N	-1.1500	-0.3219	-1.1014
C	-0.7041	0.7894	-0.5437
N	0.5468	1.3189	-0.6781
C	0.5613	2.3878	0.0778
N	-0.6294	2.6224	0.7051
C	-1.4710	1.6063	0.3279
C	-2.7758	1.2560	0.6108
C	-3.2192	0.0916	0.0030
Br	-5.0072	-0.4681	0.3350
H	-3.4134	1.8361	1.2603
H	-0.8266	3.3878	1.3281
S	1.9226	3.4274	0.3202
C	3.1249	2.7235	-0.8580
H	2.5871	2.5128	-1.7807
H	3.8572	3.5166	-1.0069
C	3.8450	1.4818	-0.3181
O	4.9612	1.5556	0.1428
N	3.0967	0.3653	-0.4540
C	3.3940	-0.9401	-0.0658
C	4.6337	-1.3293	0.4346
C	4.8481	-2.6485	0.7917
C	3.8475	-3.5960	0.6608
C	2.6234	-3.1880	0.1613
C	2.3748	-1.8821	-0.2061
H	1.4067	-1.6011	-0.5936
F	1.6328	-4.0968	0.0290
H	4.0012	-4.6269	0.9355
H	5.8117	-2.9425	1.1785
H	5.4164	-0.5975	0.5426
H	2.1323	0.5037	-0.7823
H	-3.7436	-1.7483	-2.0953
H	-2.0821	-2.3752	-2.0578
H	-3.1822	-2.6555	-0.6940
35
0
C	-3.0373	-2.1208	-1.5228
C	-2.6010	-0.8626	-0.8502
N	-1.3819	-0.4317	-1.1227
C	-0.9827	0.6797	-0.5304
N	0.2340	1.2826	-0.6693
C	0.2034	2.3259	0.1216
N	-0.9845	2.4699	0.7813
C	-1.7755	1.4216	0.3848
C	-3.0533	0.9916	0.6794
C	-3.4480	-0.1704	0.0344
Br	-5.1967	-0.8380	0.3781
H	-3.7067	1.5123	1.3627
H	-1.2112	3.2021	1.4334
S	1.5007	3.4429	0.3667
C	2.7029	2.8737	-0.8812
H	2.1451	2.6528	-1.7895
H	3.3674	3.7245	-1.0296
C	3.5355	1.6737	-0.4140
O	4.6629	1.8171	-0.0005
N	2.8655	0.5083	-0.5520
C	3.2844	-0.7822	-0.2328
C	2.3516	-1.8099	-0.3847
C	2.6994	-3.1144	-0.0943
C	3.9751	-3.4221	0.3500
C	4.8833	-2.3895	0.4933
C	4.5697	-1.0734	0.2122
H	5.3056	-0.2974	0.3386
F	6.1290	-2.6755	0.9251
H	4.2670	-4.4336	0.5812
H	1.9715	-3.9020	-0.2150
H	1.3559	-1.5739	-0.7315
H	1.8818	0.5801	-0.8395
H	-3.9233	-1.9402	-2.1303
H	-2.2333	-2.4832	-2.1555
H	-3.2892	-2.8804	-0.7837
35
0
C	-2.7871	-2.0146	-1.4325
C	-2.3691	-0.7195	-0.8189
N	-1.1250	-0.3470	-1.0776
C	-0.6943	0.7795	-0.5454
N	0.5545	1.3151	-0.6784
C	0.5549	2.3974	0.0579
N	-0.6445	2.6383	0.6666
C	-1.4759	1.6094	0.3005
C	-2.7791	1.2518	0.5718
C	-3.2104	0.0673	-0.0115
Br	-5.0103	-0.4532	0.3397
H	-3.4308	1.8410	1.1989
H	-0.8526	3.4141	1.2731
S	1.9107	3.4435	0.3028
C	3.1329	2.7273	-0.8474
H	2.6123	2.5137	-1.7792
H	3.8696	3.5181	-0.9865
C	3.8422	1.4856	-0.2917
O	4.9487	1.5596	0.1919
N	3.0985	0.3688	-0.4469
C	3.3886	-0.9384	-0.0600
C	4.6240	-1.3344	0.4455
C	4.8312	-2.6561	0.7975
C	3.8274	-3.5991	0.6572
C	2.6076	-3.1838	0.1533
C	2.3663	-1.8756	-0.2102
H	1.4017	-1.5889	-0.6023
F	1.6129	-4.0876	0.0124
H	3.9758	-4.6318	0.9280
H	5.7915	-2.9558	1.1879
H	5.4087	-0.6059	0.5614
H	2.1365	0.5092	-0.7826
H	-2.6678	-1.9555	-2.5126
H	-2.1290	-2.8057	-1.0769
H	-3.8148	-2.2711	-1.1978
35
0
C	2.7597	2.4379	0.8029
C	2.3287	1.0886	0.3298
N	1.0299	0.8410	0.3342
C	0.6345	-0.3506	-0.0818
N	-0.6486	-0.8027	-0.1530
C	-0.5593	-2.0283	-0.5935
N	0.7222	-2.4334	-0.8456
C	1.5246	-1.3705	-0.5205
C	2.8825	-1.1301	-0.5340
C	3.2626	0.1300	-0.0976
Br	5.1192	0.5518	-0.0810
H	3.6075	-1.8624	-0.8557
H	1.0026	-3.3435	-1.1707
S	-1.9201	-3.0653	-0.8214
C	-3.1714	-1.9606	-0.0993
H	-3.2821	-1.1033	-0.7585
H	-4.0892	-2.5462	-0.0554
C	-2.7113	-1.5685	1.2987
O	-2.2821	-2.3829	2.0833
N	-2.8042	-0.2540	1.6259
C	-3.1399	0.8314	0.7999
C	-2.2278	1.8675	0.6210
C	-2.5574	2.9487	-0.1750
C	-3.7933	3.0212	-0.7967
C	-4.6880	1.9864	-0.5990
C	-4.3894	0.8924	0.1916
H	-5.1240	0.1165	0.3388
F	-5.8992	2.0403	-1.1909
H	-4.0673	3.8561	-1.4212
H	-1.8414	3.7425	-0.3201
H	-1.2506	1.7963	1.0713
H	-2.2752	-0.0182	2.4571
H	3.4194	2.3467	1.6652
H	3.3066	2.9597	0.0185
H	1.8837	3.0167	1.0782
35
0
C	-2.8325	-0.7486	-1.9813
C	-1.7545	0.0575	-1.3379
N	-0.5482	-0.0328	-1.8604
C	0.4210	0.6611	-1.2853
N	1.7429	0.6586	-1.6222
C	2.3220	1.4236	-0.7449
N	1.4621	1.9859	0.1590
C	0.2260	1.4887	-0.1451
C	-1.0341	1.6044	0.4119
C	-2.0219	0.8685	-0.2154
Br	-3.7881	0.9619	0.4733
H	-1.2383	2.2120	1.2803
H	1.7111	2.5450	0.9597
S	4.0569	1.6482	-0.6480
C	4.3546	0.8169	0.9819
H	5.2630	0.2304	0.8553
H	4.5079	1.5779	1.7462
C	3.1531	-0.0416	1.3416
O	2.4342	0.2500	2.2717
N	2.9680	-1.0869	0.4961
C	1.7809	-1.7994	0.2755
C	1.7112	-2.6030	-0.8601
C	0.5436	-3.2693	-1.1735
C	-0.5760	-3.1446	-0.3692
C	-0.4844	-2.3454	0.7539
C	0.6731	-1.6775	1.1054
H	0.6972	-1.0660	1.9916
F	-1.5720	-2.1920	1.5370
H	-1.5011	-3.6455	-0.6027
H	0.4994	-3.8808	-2.0606
H	2.5689	-2.6822	-1.5104
H	3.6443	-1.1935	-0.2502
H	-3.2859	-1.4220	-1.2550
H	-3.6167	-0.0977	-2.3665
H	-2.4049	-1.3228	-2.7971
