58
0
C	-0.0894	-3.0316	-2.5838
C	1.0036	-2.6469	-1.6468
C	0.7673	-1.8885	-0.5079
C	1.7886	-1.4582	0.3140
C	3.1148	-1.6752	-0.0494
C	3.3720	-2.4916	-1.1487
C	2.3301	-2.9827	-1.9123
H	2.5528	-3.5978	-2.7714
H	4.3931	-2.7097	-1.4260
N	4.1745	-1.0556	0.6248
C	4.2888	0.2385	1.0598
O	5.3124	0.6111	1.5906
C	3.1005	1.1290	0.8806
C	2.3374	1.1398	-0.2851
C	1.1391	1.8192	-0.3089
C	0.7276	2.6057	0.7590
C	1.5709	2.7052	1.8676
C	2.7248	1.9487	1.9421
H	3.3423	1.9688	2.8278
H	1.2751	3.3487	2.6828
C	-0.5741	3.3221	0.8055
O	-0.7241	4.2855	1.5301
C	-1.7075	2.7644	0.0284
C	-1.5712	1.9033	-1.0541
C	-2.6698	1.3688	-1.6937
C	-3.9439	1.6793	-1.2441
C	-4.1049	2.5432	-0.1711
C	-2.9990	3.0834	0.4570
H	-3.1062	3.7544	1.2966
H	-5.0958	2.7927	0.1782
H	-4.8061	1.2498	-1.7310
H	-2.5091	0.6964	-2.5204
S	0.0480	1.5269	-1.6925
O	0.1486	0.1345	-2.0636
O	0.3450	2.4716	-2.7381
H	2.6284	0.5920	-1.1674
H	5.0502	-1.5658	0.6565
H	1.5271	-0.9018	1.1980
S	-0.8207	-1.2476	0.0111
O	-0.6437	0.0788	0.5438
O	-1.8912	-1.4505	-0.9212
N	-1.0299	-2.2164	1.3859
C	-1.3954	-3.5926	1.1058
H	-0.8230	-3.9207	0.2381
C	-2.9007	-3.7341	0.8514
H	-3.1862	-4.7856	0.7855
O	-3.6454	-3.1939	1.9224
C	-3.3428	-1.8290	2.1158
H	-3.9661	-1.4956	2.9472
C	-1.8575	-1.6410	2.4320
H	-1.6062	-0.5832	2.4958
H	-1.6060	-2.1431	3.3718
H	-3.5891	-1.2542	1.2103
H	-3.1565	-3.2151	-0.0822
H	-1.1076	-4.1939	1.9748
H	-0.5069	-2.1167	-3.0010
H	0.2906	-3.6597	-3.3857
H	-0.8997	-3.5455	-2.0719
58
0
C	-0.6900	-3.5541	2.2209
C	-1.6296	-2.7012	1.4408
C	-1.1694	-1.8086	0.4833
C	-2.0288	-1.0302	-0.2653
C	-3.3928	-1.0172	0.0157
C	-3.8740	-1.9192	0.9631
C	-3.0071	-2.7574	1.6386
H	-3.4052	-3.4481	2.3671
H	-4.9313	-1.9487	1.1831
N	-4.2836	-0.1319	-0.6026
C	-4.1281	1.1650	-1.0196
O	-5.0568	1.7507	-1.5309
C	-2.7746	1.7724	-0.8401
C	-2.0626	1.6303	0.3478
C	-0.7295	1.9760	0.3891
C	-0.1016	2.5765	-0.6932
C	-0.8671	2.8560	-1.8281
C	-2.1790	2.4295	-1.9138
H	-2.7486	2.5743	-2.8196
H	-0.3927	3.3623	-2.6557
C	1.3479	2.9020	-0.7300
O	1.7726	3.7363	-1.5044
C	2.2692	2.1183	0.1287
C	1.8836	1.3801	1.2422
C	2.7952	0.6443	1.9703
C	4.1231	0.6085	1.5738
C	4.5303	1.3319	0.4628
C	3.6153	2.0848	-0.2478
H	3.9156	2.6555	-1.1143
H	5.5635	1.3075	0.1497
H	4.8350	0.0178	2.1298
H	2.4440	0.0882	2.8237
S	0.1950	1.4138	1.8084
O	-0.2888	0.0909	2.1230
O	0.1002	2.3874	2.8647
H	-2.5024	1.1887	1.2283
H	-5.2485	-0.4424	-0.6446
H	-1.6066	-0.3983	-1.0271
S	0.5684	-1.5138	0.1723
O	0.6805	-0.2282	-0.4780
O	1.4432	-1.7855	1.2694
N	0.8701	-2.7594	-0.9407
C	2.2136	-3.3147	-0.9032
H	2.5018	-3.4017	0.1425
C	3.1884	-2.4083	-1.6568
H	4.1814	-2.8573	-1.7133
O	2.7690	-2.2183	-2.9903
C	1.4866	-1.6314	-3.0448
H	1.2364	-1.5508	-4.1041
C	0.4539	-2.4904	-2.3053
H	-0.5104	-1.9860	-2.2753
H	0.3415	-3.4551	-2.8117
H	1.5090	-0.6323	-2.5883
H	3.2451	-1.4407	-1.1338
H	2.1799	-4.3043	-1.3695
H	0.0138	-2.9157	2.7500
H	-1.2283	-4.1771	2.9306
H	-0.1102	-4.1856	1.5498
58
0
C	2.2701	2.1082	2.5886
C	2.4166	0.8026	1.8798
C	1.7088	0.4849	0.7287
C	1.8576	-0.7351	0.0972
C	2.6423	-1.7353	0.6636
C	3.3975	-1.4171	1.7911
C	3.2942	-0.1664	2.3668
H	3.8765	0.0560	3.2487
H	4.0417	-2.1636	2.2324
N	2.6742	-3.0387	0.1541
C	1.6701	-3.8188	-0.3594
O	1.9115	-4.9457	-0.7324
C	0.3144	-3.1985	-0.4591
C	-0.2226	-2.4286	0.5695
C	-1.3601	-1.6854	0.3423
C	-2.0636	-1.7805	-0.8505
C	-1.5990	-2.6715	-1.8208
C	-0.4055	-3.3451	-1.6424
H	-0.0045	-3.9754	-2.4221
H	-2.1670	-2.7802	-2.7327
C	-3.2668	-0.9667	-1.1662
O	-4.0595	-1.3407	-2.0076
C	-3.4214	0.3484	-0.4994
C	-2.7674	0.7263	0.6675
C	-2.9205	1.9870	1.2052
C	-3.7300	2.9125	0.5654
C	-4.3979	2.5566	-0.5967
C	-4.2480	1.2879	-1.1225
H	-4.7581	0.9952	-2.0284
H	-5.0348	3.2722	-1.0951
H	-3.8395	3.9052	0.9742
H	-2.3842	2.2310	2.1074
S	-1.7771	-0.4506	1.5626
O	-0.5415	0.1384	2.0197
O	-2.6042	-1.0449	2.5809
H	0.2563	-2.3440	1.5324
H	3.5318	-3.5558	0.3150
H	1.3008	-0.9099	-0.8074
S	0.4598	1.5210	-0.0541
O	-0.4734	0.6491	-0.7181
O	-0.0470	2.5630	0.7838
N	1.2381	2.3280	-1.2915
C	1.6074	1.6313	-2.5020
H	0.9523	0.7664	-2.5943
C	3.0864	1.2261	-2.4857
H	3.3943	0.8552	-3.4647
O	3.9141	2.3364	-2.2143
C	3.5959	2.9259	-0.9723
H	4.2828	3.7657	-0.8551
C	2.1404	3.4050	-0.9528
H	1.8484	3.7768	0.0276
H	2.0148	4.2014	-1.6953
H	3.7638	2.1964	-0.1646
H	3.2566	0.4455	-1.7282
H	1.4306	2.3070	-3.3472
H	1.2572	2.4782	2.4669
H	2.4896	1.9867	3.6464
H	2.9624	2.8464	2.1808
58
0
C	-2.5142	-1.1838	2.9994
C	-2.4833	0.0051	2.0971
C	-1.7762	0.0277	0.9031
C	-1.7630	1.1407	0.0849
C	-2.3580	2.3289	0.4993
C	-3.1068	2.3132	1.6746
C	-3.1793	1.1648	2.4380
H	-3.7549	1.1760	3.3518
H	-3.6067	3.2128	2.0031
N	-2.2029	3.5279	-0.2066
C	-1.1079	4.0483	-0.8464
O	-1.1797	5.1327	-1.3817
C	0.1267	3.2063	-0.8737
C	0.5781	2.5175	0.2492
C	1.5733	1.5740	0.1158
C	2.2325	1.3790	-1.0901
C	1.8737	2.1826	-2.1749
C	0.8102	3.0597	-2.0783
H	0.4815	3.6265	-2.9367
H	2.4131	2.0639	-3.1028
C	3.2799	0.3457	-1.3019
O	4.0821	0.4595	-2.2074
C	3.2608	-0.8634	-0.4441
C	2.6051	-0.9569	0.7780
C	2.5858	-2.1323	1.4990
C	3.2192	-3.2574	0.9949
C	3.8864	-3.1866	-0.2188
C	3.9094	-2.0025	-0.9301
H	4.4208	-1.9309	-1.8787
H	4.3872	-4.0587	-0.6124
H	3.1931	-4.1833	1.5488
H	2.0547	-2.1529	2.4364
S	1.8423	0.4793	1.5003
O	0.5496	0.1626	2.0595
O	2.7880	1.0780	2.4067
H	0.1333	2.6536	1.2225
H	-2.9603	4.1963	-0.1157
H	-1.2235	1.0813	-0.8443
S	-0.7437	-1.3025	0.2691
O	0.2900	-0.7247	-0.5490
O	-0.3780	-2.3004	1.2255
N	-1.7485	-2.1049	-0.8119
C	-2.8724	-2.8001	-0.2247
H	-2.5057	-3.3254	0.6558
C	-3.4250	-3.7828	-1.2608
H	-4.3322	-4.2649	-0.8934
O	-3.7871	-3.1152	-2.4471
C	-2.6839	-2.4437	-3.0088
H	-3.0517	-1.9548	-3.9121
C	-2.1119	-1.4150	-2.0285
H	-1.2082	-0.9560	-2.4278
H	-2.8719	-0.6413	-1.8338
H	-1.8980	-3.1664	-3.2700
H	-2.6609	-4.5429	-1.4766
H	-3.6655	-2.0914	0.0628
H	-3.3622	-1.8251	2.7559
H	-1.6002	-1.7565	2.8842
H	-2.6176	-0.8657	4.0339
58
0
C	2.1389	1.2768	3.1422
C	2.4473	0.2298	2.1285
C	1.8187	0.1993	0.8906
C	2.0412	-0.8086	-0.0243
C	2.8203	-1.9080	0.3271
C	3.5111	-1.8672	1.5363
C	3.3409	-0.8036	2.4028
H	3.8729	-0.8010	3.3425
H	4.1543	-2.6899	1.8128
N	2.8779	-3.0561	-0.4730
C	1.8652	-3.7173	-1.1172
O	2.1011	-4.7346	-1.7317
C	0.5003	-3.1089	-1.0530
C	-0.0267	-2.5644	0.1162
C	-1.1909	-1.8297	0.0615
C	-1.9308	-1.7252	-1.1090
C	-1.4688	-2.3977	-2.2424
C	-0.2510	-3.0502	-2.2244
H	0.1428	-3.5098	-3.1187
H	-2.0624	-2.3542	-3.1435
C	-3.1721	-0.9170	-1.2352
O	-3.9806	-1.1607	-2.1088
C	-3.3449	0.2496	-0.3364
C	-2.6696	0.4250	0.8657
C	-2.8285	1.5663	1.6233
C	-3.6704	2.5735	1.1781
C	-4.3636	2.4164	-0.0129
C	-4.2046	1.2663	-0.7620
H	-4.7319	1.1302	-1.6947
H	-5.0263	3.1953	-0.3596
H	-3.7858	3.4749	1.7602
H	-2.2706	1.6585	2.5406
S	-1.6357	-0.8753	1.5041
O	-0.4255	-0.3395	2.0849
O	-2.4353	-1.6898	2.3825
H	0.4713	-2.6570	1.0684
H	3.7436	-3.5832	-0.4457
H	1.5454	-0.7450	-0.9780
S	0.5734	1.3535	0.3247
O	-0.4186	0.6451	-0.4423
O	0.1145	2.3093	1.2885
N	1.5001	2.1659	-0.8499
C	0.6705	2.9303	-1.7663
H	-0.0654	2.2458	-2.1869
C	1.5645	3.5272	-2.8527
H	0.9862	4.1688	-3.5187
O	2.5668	4.3427	-2.2915
C	3.3633	3.6165	-1.3890
H	4.0923	4.3225	-0.9880
C	2.5218	3.0107	-0.2623
H	3.1458	2.3893	0.3820
H	2.0617	3.8118	0.3344
H	3.8854	2.8053	-1.9185
H	2.0259	2.7123	-3.4296
H	0.1491	3.7361	-1.2292
H	1.0909	1.1745	3.4186
H	2.7639	1.1601	4.0240
H	2.2625	2.2773	2.7351
58
0
C	-0.1486	-2.9455	2.8627
C	-1.2076	-2.3656	1.9909
C	-0.8854	-1.6318	0.8587
C	-1.8503	-1.1029	0.0255
C	-3.1964	-1.1751	0.3759
C	-3.5403	-1.9235	1.5006
C	-2.5627	-2.5235	2.2722
H	-2.8561	-3.0987	3.1378
H	-4.5795	-2.0187	1.7804
N	-4.2006	-0.5201	-0.3466
C	-4.2027	0.6845	-1.0021
O	-5.2060	1.0646	-1.5642
C	-2.9201	1.4509	-1.0051
C	-2.1567	1.5993	0.1494
C	-0.8697	2.0828	0.0584
C	-0.3505	2.5443	-1.1431
C	-1.1809	2.5341	-2.2667
C	-2.4379	1.9625	-2.2073
H	-3.0502	1.8814	-3.0930
H	-0.7956	2.9328	-3.1934
C	1.0473	3.0208	-1.3092
O	1.3432	3.7461	-2.2381
C	2.0819	2.5215	-0.3711
C	1.8218	1.9405	0.8649
C	2.8377	1.4617	1.6657
C	4.1506	1.5350	1.2273
C	4.4352	2.1106	-0.0019
C	3.4132	2.6027	-0.7905
H	3.6169	3.0539	-1.7505
H	5.4569	2.1743	-0.3461
H	4.9465	1.1460	1.8439
H	2.5806	1.0165	2.6125
S	0.1604	1.8750	1.5000
O	-0.1518	0.5764	2.0491
O	-0.0190	2.9924	2.3901
H	-2.5148	1.2823	1.1164
H	-5.1259	-0.9306	-0.2803
H	-1.5239	-0.5949	-0.8653
S	0.7976	-1.2375	0.3920
O	0.7673	-0.1080	-0.5080
O	1.7522	-1.2158	1.4549
N	1.1986	-2.6346	-0.4970
C	0.4682	-2.7683	-1.7424
H	-0.5990	-2.7469	-1.5196
C	0.8361	-4.1075	-2.3890
H	0.3653	-4.2012	-3.3688
O	2.2204	-4.2179	-2.6036
C	2.9296	-4.0775	-1.3947
H	3.9872	-4.1549	-1.6498
C	2.6305	-2.7316	-0.7366
H	3.1287	-2.6414	0.2274
H	2.9641	-1.9152	-1.3939
H	2.6539	-4.8881	-0.7041
H	0.4930	-4.9231	-1.7343
H	0.7150	-1.9405	-2.4231
H	0.4692	-2.1388	3.2511
H	-0.5846	-3.5058	3.6859
H	0.5042	-3.5948	2.2821
58
0
C	-0.1959	-3.4389	1.8811
C	-1.3336	-2.7422	1.2140
C	-1.1994	-1.9612	0.0742
C	-2.2767	-1.2877	-0.4697
C	-3.5146	-1.2931	0.1664
C	-3.6815	-2.1181	1.2747
C	-2.6107	-2.8366	1.7667
H	-2.7561	-3.4618	2.6351
H	-4.6430	-2.1734	1.7638
N	-4.5607	-0.4628	-0.2549
C	-4.4958	0.8521	-0.6258
O	-5.4937	1.4549	-0.9513
C	-3.1301	1.4628	-0.6187
C	-2.2529	1.2931	0.4512
C	-0.9454	1.7098	0.3390
C	-0.4921	2.3843	-0.7888
C	-1.4116	2.6467	-1.8086
C	-2.7080	2.1772	-1.7353
H	-3.4011	2.3384	-2.5473
H	-1.0686	3.1963	-2.6727
C	0.9071	2.8247	-1.0135
O	1.1783	3.5256	-1.9696
C	1.9817	2.3899	-0.0855
C	1.7815	1.6950	1.0992
C	2.8408	1.3443	1.9135
C	4.1365	1.6718	1.5483
C	4.3609	2.3515	0.3601
C	3.2966	2.7055	-0.4454
H	3.4525	3.2418	-1.3698
H	5.3671	2.6092	0.0661
H	4.9635	1.4042	2.1883
H	2.6281	0.8235	2.8343
S	0.1461	1.2982	1.6877
O	0.0631	-0.1064	2.0115
O	-0.1454	2.1962	2.7767
H	-2.5563	0.8102	1.3674
H	-5.5037	-0.8155	-0.1398
H	-2.1192	-0.7418	-1.3858
S	0.2845	-1.5919	-0.8787
O	-0.0185	-1.9567	-2.2351
O	0.6218	-0.2062	-0.6502
N	1.5150	-2.5888	-0.3288
C	2.4911	-1.9433	0.5302
H	1.9569	-1.2240	1.1492
C	3.5625	-1.2422	-0.3086
H	4.3688	-0.8664	0.3234
O	4.1637	-2.1338	-1.2213
C	3.2074	-2.6898	-2.0981
H	3.7575	-3.3565	-2.7641
C	2.1315	-3.4513	-1.3220
H	1.3486	-3.7932	-1.9964
H	2.5761	-4.3022	-0.7959
H	2.7211	-1.8958	-2.6835
H	3.0958	-0.4047	-0.8471
H	2.9500	-2.7149	1.1568
H	-0.5657	-4.1248	2.6396
H	0.4111	-3.9825	1.1643
H	0.4289	-2.6892	2.3628
58
0
C	-1.8173	-3.8985	-1.7018
C	-2.4716	-2.7479	-1.0159
C	-1.7219	-1.7524	-0.4033
C	-2.3085	-0.7051	0.2732
C	-3.6910	-0.5480	0.2801
C	-4.4610	-1.5450	-0.3192
C	-3.8577	-2.6270	-0.9337
H	-4.4775	-3.3885	-1.3830
H	-5.5384	-1.4674	-0.3068
N	-4.3096	0.5579	0.8679
C	-3.8767	1.8587	0.9416
O	-4.5342	2.6964	1.5097
C	-2.5818	2.1214	0.2324
C	-1.3931	2.2291	0.9491
C	-0.1902	2.2413	0.2757
C	-0.1379	2.2384	-1.1115
C	-1.3406	2.2468	-1.8203
C	-2.5497	2.1588	-1.1578
H	-3.4717	2.1021	-1.7175
H	-1.2998	2.2756	-2.8990
C	1.1221	2.1701	-1.8968
O	1.1553	2.5519	-3.0489
C	2.3023	1.5330	-1.2658
C	2.4851	1.4191	0.1063
C	3.5996	0.8006	0.6336
C	4.5531	0.2588	-0.2156
C	4.3847	0.3544	-1.5890
C	3.2723	0.9879	-2.1102
H	3.1268	1.0717	-3.1766
H	5.1242	-0.0661	-2.2539
H	5.4207	-0.2355	0.1950
H	3.7004	0.7429	1.7065
S	1.3210	2.1729	1.2274
O	1.1186	1.3415	2.3831
O	1.7663	3.5205	1.4707
H	-1.3859	2.2263	2.0287
H	-5.2519	0.4171	1.2146
H	-1.6531	-0.0208	0.7784
S	0.0674	-1.6824	-0.4971
O	0.5013	-1.9588	-1.8366
O	0.4833	-0.4180	0.0595
N	0.5002	-2.9918	0.4548
C	0.4085	-2.7364	1.8825
H	-0.4723	-2.1188	2.0569
C	1.6614	-2.0298	2.4106
H	1.6555	-2.0062	3.5012
O	2.8343	-2.7307	2.0434
C	2.9360	-2.8765	0.6457
H	3.8703	-3.4107	0.4632
C	1.7413	-3.6526	0.0906
H	1.7787	-3.6959	-0.9971
H	1.7165	-4.6644	0.5073
H	2.9697	-1.8900	0.1591
H	1.6849	-1.0024	2.0265
H	0.2803	-3.7042	2.3789
H	-2.5472	-4.4966	-2.2406
H	-1.0586	-3.5337	-2.3899
H	-1.3130	-4.5261	-0.9681
58
0
C	-0.5558	-0.6174	-3.9682
C	-1.4722	-0.8596	-2.8206
C	-1.4260	-0.0954	-1.6623
C	-2.1797	-0.4113	-0.5501
C	-2.9707	-1.5555	-0.5394
C	-3.1037	-2.2808	-1.7213
C	-2.3766	-1.9221	-2.8390
H	-2.4672	-2.5130	-3.7379
H	-3.7461	-3.1487	-1.7482
N	-3.5687	-1.9978	0.6471
C	-3.0073	-2.0348	1.8956
O	-3.6437	-2.4179	2.8511
C	-1.5882	-1.5653	1.9844
C	-0.6204	-1.9976	1.0794
C	0.6309	-1.4233	1.0834
C	0.9895	-0.4715	2.0289
C	0.0451	-0.1213	2.9984
C	-1.2320	-0.6475	2.9683
H	-1.9713	-0.3434	3.6943
H	0.3325	0.5935	3.7557
C	2.3027	0.2251	2.0651
O	2.6150	0.8748	3.0460
C	3.1817	0.1911	0.8730
C	3.0030	-0.6393	-0.2270
C	3.8259	-0.5584	-1.3305
C	4.8558	0.3686	-1.3597
C	5.0594	1.2016	-0.2698
C	4.2306	1.1155	0.8315
H	4.3691	1.7642	1.6841
H	5.8622	1.9234	-0.2833
H	5.4955	0.4393	-2.2263
H	3.6395	-1.2240	-2.1586
S	1.7577	-1.9130	-0.2125
O	1.0487	-1.9783	-1.4644
O	2.4017	-3.1336	0.2061
H	-0.8281	-2.7554	0.3399
H	-4.4648	-2.4649	0.5753
H	-2.1076	0.2262	0.3146
S	-0.2556	1.2271	-1.3755
O	0.8274	0.7046	-0.5860
O	0.0823	1.9445	-2.5726
N	-1.1400	2.2247	-0.3375
C	-0.3243	3.0485	0.5370
H	0.3954	2.3968	1.0313
C	-1.2519	3.7262	1.5460
H	-0.6934	4.4142	2.1816
O	-2.2304	4.4993	0.8912
C	-3.0056	3.7158	0.0176
H	-3.7120	4.3974	-0.4580
C	-2.1331	3.0210	-1.0319
H	-2.7310	2.3514	-1.6521
H	-1.6480	3.7672	-1.6758
H	-3.5562	2.9520	0.5878
H	-1.7344	2.9567	2.1673
H	0.2153	3.8120	-0.0411
H	0.3998	-1.0809	-3.7201
H	-0.9409	-1.0685	-4.8793
H	-0.3796	0.4433	-4.1171
58
0
C	-0.4745	-0.9392	-3.9101
C	-1.4180	-1.0873	-2.7685
C	-1.4038	-0.2230	-1.6817
C	-2.1835	-0.4449	-0.5651
C	-2.9694	-1.5890	-0.4726
C	-3.0694	-2.4173	-1.5879
C	-2.3164	-2.1535	-2.7151
H	-2.3814	-2.8223	-3.5599
H	-3.7064	-3.2889	-1.5533
N	-3.5930	-1.9270	0.7351
C	-3.0576	-1.8469	1.9929
O	-3.7115	-2.1424	2.9672
C	-1.6407	-1.3667	2.0635
C	-0.6558	-1.8859	1.2253
C	0.5949	-1.3112	1.1937
C	0.9343	-0.2651	2.0416
C	-0.0288	0.1795	2.9527
C	-1.3038	-0.3521	2.9549
H	-2.0565	0.0218	3.6330
H	0.2435	0.9701	3.6367
C	2.2438	0.4394	2.0282
O	2.5235	1.2091	2.9291
C	3.1617	0.2617	0.8790
C	3.0086	-0.6843	-0.1275
C	3.8696	-0.7357	-1.2034
C	4.9138	0.1706	-1.2989
C	5.0922	1.1179	-0.3020
C	4.2249	1.1645	0.7716
H	4.3435	1.9031	1.5509
H	5.9057	1.8248	-0.3670
H	5.5838	0.1370	-2.1447
H	3.7017	-1.4877	-1.9584
S	1.7470	-1.9370	-0.0184
O	1.0681	-2.1205	-1.2749
O	2.3651	-3.1157	0.5370
H	-0.8493	-2.7155	0.5631
H	-4.4864	-2.4021	0.6864
H	-2.1363	0.2658	0.2423
S	-0.2369	1.1206	-1.4926
O	0.8610	0.6498	-0.6913
O	0.0774	1.7619	-2.7387
N	-1.1078	2.1790	-0.5056
C	-0.2840	3.0576	0.3055
H	0.4488	2.4415	0.8252
C	-1.2008	3.7862	1.2884
H	-0.6377	4.5124	1.8754
O	-2.1941	4.5150	0.6054
C	-2.9766	3.6790	-0.2110
H	-3.6932	4.3288	-0.7150
C	-2.1148	2.9290	-1.2312
H	-2.7176	2.2224	-1.8037
H	-1.6426	3.6390	-1.9236
H	-3.5155	2.9467	0.4097
H	-1.6688	3.0502	1.9594
H	0.2399	3.7900	-0.3249
H	-0.8339	-1.4711	-4.7874
H	-0.3018	0.1062	-4.1469
H	0.4773	-1.3716	-3.5993
58
0
C	0.6449	3.7257	1.8951
C	1.5981	2.8312	1.1767
C	1.1728	1.8865	0.2522
C	2.0694	1.0829	-0.4241
C	3.4216	1.0961	-0.0953
C	3.8672	2.0543	0.8124
C	2.9692	2.9173	1.4101
H	3.3352	3.6514	2.1127
H	4.9161	2.1054	1.0662
N	4.3309	0.1697	-0.6219
C	4.1897	-1.1655	-0.8949
O	5.1277	-1.7951	-1.3340
C	2.8422	-1.7681	-0.6614
C	2.0982	-1.4958	0.4838
C	0.7749	-1.8745	0.5431
C	0.1894	-2.6292	-0.4643
C	0.9888	-3.0285	-1.5380
C	2.2899	-2.5767	-1.6518
H	2.8859	-2.8210	-2.5185
H	0.5490	-3.6522	-2.3021
C	-1.2520	-2.9911	-0.4951
O	-1.6367	-3.9304	-1.1645
C	-2.2120	-2.1156	0.2177
C	-1.8744	-1.2360	1.2402
C	-2.8148	-0.4141	1.8236
C	-4.1233	-0.4357	1.3673
C	-4.4833	-1.3014	0.3466
C	-3.5402	-2.1383	-0.2169
H	-3.8036	-2.8192	-1.0131
H	-5.5012	-1.3208	-0.0130
H	-4.8571	0.2225	1.8068
H	-2.4997	0.2524	2.6096
S	-0.2076	-1.1852	1.8661
O	0.2432	0.1698	2.0771
O	-0.1354	-2.0543	3.0132
H	2.5052	-0.9365	1.3115
H	5.2931	0.4841	-0.6858
H	1.6837	0.4060	-1.1660
S	-0.5430	1.4966	-0.1142
O	-0.5670	0.1251	-0.5484
O	-1.4598	1.9437	0.8854
N	-0.7412	2.4939	-1.4960
C	-0.8955	1.7387	-2.7222
H	-0.7875	2.4331	-3.5609
C	-2.2772	1.0397	-2.7384
H	-2.1663	-0.0442	-2.7125
O	-3.0054	1.3636	-1.5792
C	-3.1802	2.7530	-1.4355
H	-3.7413	2.8762	-0.5098
C	-1.8075	3.4641	-1.3490
H	-1.6929	4.2149	-2.1363
H	-1.6808	3.9358	-0.3774
H	-3.7686	3.1433	-2.2811
H	-2.8497	1.3334	-3.6326
H	-0.0930	1.0055	-2.7606
H	0.2673	4.4928	1.2190
H	-0.2012	3.1428	2.2468
H	1.1338	4.2124	2.7351
58
0
C	-0.4414	-2.9497	-2.7364
C	0.6810	-2.6533	-1.7991
C	0.5164	-1.8890	-0.6528
C	1.5633	-1.6205	0.2064
C	2.8593	-2.0011	-0.1287
C	3.0397	-2.8078	-1.2510
C	1.9629	-3.1429	-2.0484
H	2.1248	-3.7606	-2.9194
H	4.0317	-3.1455	-1.5134
N	3.9731	-1.5622	0.5978
C	4.2494	-0.3253	1.1186
O	5.3003	-0.1296	1.6889
C	3.1950	0.7257	0.9788
C	2.4738	0.9101	-0.1985
C	1.3688	1.7330	-0.1991
C	1.0262	2.4907	0.9129
C	1.8448	2.4117	2.0418
C	2.8939	1.5137	2.0871
H	3.4825	1.3964	2.9847
H	1.6065	3.0309	2.8938
C	-0.1795	3.3567	0.9850
O	-0.2341	4.2745	1.7790
C	-1.3457	3.0093	0.1369
C	-1.2852	2.2116	-0.9997
C	-2.4198	1.8811	-1.7109
C	-3.6564	2.3366	-1.2809
C	-3.7409	3.1399	-0.1534
C	-2.5980	3.4762	0.5464
H	-2.6461	4.0982	1.4281
H	-4.7015	3.5019	0.1817
H	-4.5484	2.0668	-1.8252
H	-2.3182	1.2515	-2.5795
S	0.2866	1.6481	-1.6169
O	0.2118	0.2671	-2.0359
O	0.7360	2.5797	-2.6184
H	2.7187	0.3876	-1.1097
H	4.7719	-2.1867	0.6144
H	1.3501	-1.0613	1.1013
S	-0.9864	-1.0641	-0.1332
O	-0.6480	0.1671	0.5326
O	-2.0549	-1.0240	-1.0905
N	-1.4078	-2.1296	1.1234
C	-2.2461	-1.5353	2.1540
H	-1.9391	-1.9284	3.1291
C	-3.7162	-1.8450	1.8969
H	-3.9921	-1.4495	0.9086
O	-3.9735	-3.2393	1.9473
C	-2.8542	-4.0391	1.6321
H	-3.2537	-4.9774	1.2387
C	-1.9397	-3.3834	0.6025
H	-1.0978	-4.0433	0.3738
H	-2.5056	-3.1914	-0.3179
H	-2.2765	-4.2586	2.5421
H	-4.3545	-1.3853	2.6560
H	-2.0666	-0.4608	2.1332
H	-0.0614	-3.1132	-3.7416
H	-0.9722	-3.8488	-2.4211
H	-1.1408	-2.1202	-2.7407
58
0
C	-3.3215	-2.0098	-2.3943
C	-3.1657	-0.7417	-1.6198
C	-2.0906	-0.4804	-0.7831
C	-1.9837	0.7071	-0.0882
C	-2.9263	1.7154	-0.2400
C	-4.0346	1.4546	-1.0460
C	-4.1445	0.2495	-1.7086
H	-5.0066	0.0705	-2.3342
H	-4.8029	2.2053	-1.1605
N	-2.8093	2.9563	0.3958
C	-1.6942	3.7071	0.6581
O	-1.7854	4.7695	1.2266
C	-0.4064	3.1296	0.1500
C	0.4201	2.3981	0.9978
C	1.5006	1.7205	0.4768
C	1.8426	1.8230	-0.8642
C	1.0708	2.6473	-1.6832
C	-0.0612	3.2690	-1.1894
H	-0.6874	3.8551	-1.8458
H	1.3510	2.7507	-2.7208
C	2.9498	1.0524	-1.4904
O	3.5077	1.4599	-2.4883
C	3.2508	-0.2836	-0.9229
C	2.9787	-0.6471	0.3897
C	3.2101	-1.9269	0.8452
C	3.7140	-2.8831	-0.0229
C	4.0030	-2.5391	-1.3344
C	3.7763	-1.2511	-1.7813
H	3.9884	-0.9698	-2.8021
H	4.4012	-3.2797	-2.0116
H	3.8836	-3.8913	0.3240
H	2.9788	-2.1575	1.8733
S	2.4067	0.5984	1.5287
O	1.5038	0.0385	2.5035
O	3.5638	1.2786	2.0501
H	0.1963	2.2927	2.0490
H	-3.6800	3.4298	0.6108
H	-1.1333	0.8228	0.5571
S	-0.6418	-1.5405	-0.5472
O	-0.4393	-2.3528	-1.7145
O	0.4355	-0.6615	-0.1725
N	-0.8352	-2.6017	0.7178
C	-1.7910	-3.6675	0.5252
H	-1.8701	-3.8224	-0.5497
C	-3.1469	-3.2857	1.1625
H	-3.2943	-3.8286	2.1076
O	-3.1987	-1.8983	1.4019
C	-2.2634	-1.5074	2.3880
H	-2.5889	-1.8789	3.3712
C	-0.8532	-2.0434	2.0498
H	-0.0953	-1.2607	2.0973
H	-0.5681	-2.8426	2.7410
H	-2.2921	-0.4176	2.3965
H	-3.9824	-3.5085	0.4975
H	-1.3924	-4.5794	0.9823
H	-3.9043	-2.7284	-1.8180
H	-3.8531	-1.8201	-3.3241
H	-2.3505	-2.4427	-2.6142
