19
0
O	-1.9898	-1.7310	0.1868
C	-1.8578	-0.5432	0.2269
O	-2.3463	0.2301	1.1907
H	-2.1235	1.1614	0.9836
C	-1.0633	0.2630	-0.8267
C	0.3878	0.1375	-0.4144
C	1.0538	-1.0613	-0.6368
C	2.3669	-1.2066	-0.2299
C	3.0217	-0.1592	0.3980
C	2.3572	1.0335	0.6219
C	1.0397	1.1819	0.2238
H	0.5203	2.1128	0.3913
H	2.8622	1.8524	1.1124
H	4.0479	-0.2746	0.7134
H	2.8809	-2.1400	-0.4033
H	0.5354	-1.8779	-1.1159
H	-1.2074	-0.1953	-1.8106
O	-1.4820	1.6175	-0.8025
H	-2.2230	1.7338	-1.4051
19
0
O	-2.8261	-0.0404	-0.8085
C	-1.9058	0.4833	-0.2459
O	-1.5459	1.7448	-0.4665
H	-0.7313	1.9852	0.0038
C	-1.0708	-0.2983	0.7831
C	0.3881	-0.1886	0.3931
C	1.1658	0.8599	0.8726
C	2.4832	0.9913	0.4673
C	3.0314	0.0771	-0.4157
C	2.2616	-0.9731	-0.8877
C	0.9434	-1.1040	-0.4906
H	0.3382	-1.9223	-0.8482
H	2.6885	-1.6918	-1.5708
H	4.0592	0.1797	-0.7294
H	3.0816	1.8057	0.8474
H	0.7563	1.5596	1.5912
H	-1.2266	0.1819	1.7657
O	-1.5274	-1.6159	0.8370
H	-2.2761	-1.6869	0.2191
19
0
O	2.4977	0.1187	1.1455
C	2.0049	0.3290	0.0744
O	2.2926	1.4280	-0.6343
H	1.8513	1.4509	-1.4943
C	1.0060	-0.6492	-0.5441
C	-0.4289	-0.2054	-0.2520
C	-1.4107	-1.1863	-0.1973
C	-2.7278	-0.8473	0.0512
C	-3.0774	0.4776	0.2491
C	-2.1023	1.4580	0.2005
C	-0.7818	1.1223	-0.0495
H	-0.0408	1.9079	-0.0667
H	-2.3655	2.4927	0.3614
H	-4.1049	0.7455	0.4445
H	-3.4814	-1.6196	0.0902
H	-1.1244	-2.2162	-0.3463
H	1.1487	-0.7004	-1.6347
O	1.2643	-1.9354	-0.0475
H	1.5972	-1.8334	0.8577
19
0
O	1.7728	1.7532	0.3506
C	1.8655	0.5672	0.2288
O	2.6485	-0.1922	0.9806
H	2.5946	-1.1160	0.6712
C	1.0468	-0.2233	-0.8155
C	-0.4031	-0.1319	-0.3962
C	-1.1448	0.9944	-0.7283
C	-2.4612	1.1005	-0.3193
C	-3.0463	0.0845	0.4190
C	-2.3072	-1.0353	0.7565
C	-0.9865	-1.1420	0.3563
H	-0.4079	-2.0120	0.6342
H	-2.7547	-1.8271	1.3387
H	-4.0753	0.1684	0.7349
H	-3.0328	1.9790	-0.5779
H	-0.6817	1.7876	-1.2946
H	1.1854	0.2742	-1.7862
O	1.5517	-1.5437	-0.8503
H	0.9814	-2.0802	-1.4103
