37
0
C	-5.1567	-2.9058	0.0026
H	-4.7526	-3.3890	0.8949
H	-4.7398	-3.3945	-0.8807
H	-6.2418	-2.9632	-0.0049
O	-4.8360	-1.5247	0.0007
C	-3.5311	-1.2222	0.0019
O	-2.6485	-2.0686	0.0041
C	-3.2770	0.1936	-0.0004
C	-2.0187	0.7876	-0.0004
N	-0.8842	0.0197	0.0019
C	0.4269	0.4730	0.0029
O	0.7255	1.6449	0.0026
N	1.3030	-0.5761	0.0041
C	2.7034	-0.5454	0.0021
C	3.3786	-1.7619	-0.0044
C	4.7593	-1.7829	-0.0075
C	5.4999	-0.6093	-0.0039
C	4.8222	0.6132	0.0035
C	3.4359	0.6350	0.0064
H	2.9139	1.5770	0.0117
C	5.5816	1.9043	0.0083
H	4.8992	2.7495	0.0170
H	6.2255	1.9670	0.8850
H	6.2168	1.9784	-0.8738
C	6.9972	-0.6574	-0.0081
H	7.3493	-1.6858	-0.0161
H	7.3958	-0.1480	-0.8850
H	7.4004	-0.1602	0.8738
H	5.2718	-2.7343	-0.0129
H	2.8226	-2.6892	-0.0074
H	0.9092	-1.5071	0.0032
H	-1.0913	-0.9790	0.0034
C	-2.0950	2.2010	-0.0033
C	-3.3789	2.6435	-0.0055
S	-4.5406	1.3817	-0.0041
H	-3.7155	3.6615	-0.0079
H	-1.2243	2.8289	-0.0036
37
0
C	-5.2177	-2.8790	0.0009
H	-5.7029	-3.1076	-0.9491
H	-5.9183	-3.0329	0.8211
H	-4.3360	-3.5097	0.1301
O	-4.8393	-1.5114	0.0009
C	-3.5312	-1.2247	0.0023
O	-2.6475	-2.0701	0.0081
C	-3.2734	0.1907	-0.0004
C	-2.0150	0.7844	0.0016
N	-0.8801	0.0171	0.0071
C	0.4309	0.4708	0.0067
O	0.7294	1.6427	0.0058
N	1.3072	-0.5782	0.0085
C	2.7076	-0.5474	0.0043
C	3.3828	-1.7639	-0.0060
C	4.7635	-1.7849	-0.0117
C	5.5041	-0.6113	-0.0072
C	4.8264	0.6111	0.0041
C	3.4402	0.6329	0.0098
H	2.9181	1.5750	0.0178
C	5.5858	1.9022	0.0102
H	6.2209	1.9774	-0.8720
H	4.9035	2.7475	0.0201
H	6.2299	1.9639	0.8868
C	7.0014	-0.6594	-0.0143
H	7.4064	-0.1628	0.8670
H	7.3535	-1.6879	-0.0238
H	7.3982	-0.1495	-0.8918
H	5.2759	-2.7363	-0.0202
H	2.8268	-2.6912	-0.0101
H	0.9136	-1.5093	0.0071
H	-1.0861	-0.9814	0.0092
C	-2.0910	2.1978	-0.0036
C	-3.3748	2.6407	-0.0091
S	-4.5367	1.3792	-0.0088
H	-3.7110	3.6588	-0.0140
H	-1.2202	2.8254	-0.0033
37
0
C	-4.8413	-3.1881	0.0002
H	-5.9143	-3.3598	0.0002
H	-4.3817	-3.6280	0.8880
H	-4.3817	-3.6282	-0.8876
O	-4.6682	-1.7810	0.0000
C	-3.4024	-1.3425	-0.0001
O	-2.4355	-2.0913	0.0001
C	-3.2989	0.0921	-0.0001
C	-2.1101	0.8155	-0.0000
N	-0.9011	0.1715	-0.0001
C	0.3548	0.7613	-0.0001
O	0.5281	1.9578	0.0000
N	1.3372	-0.1894	-0.0001
C	2.7257	-0.0069	-0.0000
C	3.3310	1.2427	0.0000
C	4.7111	1.3253	0.0001
C	5.5156	0.1954	0.0001
C	4.9066	-1.0635	-0.0000
C	3.5246	-1.1474	-0.0001
H	3.0538	-2.1220	-0.0001
C	5.7348	-2.3121	-0.0001
H	5.1030	-3.1966	-0.0001
H	6.3772	-2.3451	-0.8794
H	6.3772	-2.3451	0.8793
C	7.0083	0.3231	0.0001
H	7.3035	1.3691	0.0002
H	7.4361	-0.1573	0.8797
H	7.4361	-0.1572	-0.8795
H	5.1737	2.3018	0.0001
H	2.7271	2.1334	0.0000
H	1.0447	-1.1570	-0.0002
H	-1.0017	-0.8435	-0.0001
C	-2.3350	2.2129	0.0001
C	-3.6584	2.5177	0.0001
S	-4.6806	1.1405	-0.0001
H	-4.1000	3.4947	0.0002
H	-1.5356	2.9294	0.0001
37
0
C	-4.9109	-3.1635	0.0267
H	-5.4294	-3.4185	0.9517
H	-3.9628	-3.7015	-0.0320
H	-5.5388	-3.4095	-0.8296
O	-4.6752	-1.7644	0.0139
C	-3.4038	-1.3436	0.0065
O	-2.4370	-2.0926	0.0071
C	-3.2948	0.0908	-0.0032
C	-2.1053	0.8127	-0.0090
N	-0.8963	0.1685	-0.0085
C	0.3597	0.7580	-0.0043
O	0.5334	1.9544	-0.0010
N	1.3420	-0.1928	-0.0046
C	2.7306	-0.0103	0.0009
C	3.3358	1.2390	0.0293
C	4.7158	1.3217	0.0351
C	5.5204	0.1920	0.0132
C	4.9115	-1.0666	-0.0161
C	3.5296	-1.1505	-0.0214
H	3.0590	-2.1249	-0.0435
C	5.7399	-2.3148	-0.0418
H	5.1083	-3.1991	-0.0636
H	6.3848	-2.3278	-0.9198
H	6.3798	-2.3676	0.8384
C	7.0131	0.3198	0.0210
H	7.4439	-0.1405	-0.8680
H	7.3083	1.3654	0.0458
H	7.4380	-0.1806	0.8908
H	5.1784	2.2979	0.0578
H	2.7319	2.1295	0.0460
H	1.0495	-1.1603	-0.0150
H	-0.9964	-0.8461	-0.0041
C	-2.3286	2.2105	-0.0162
C	-3.6517	2.5168	-0.0154
S	-4.6755	1.1409	-0.0066
H	-4.0923	3.4942	-0.0201
H	-1.5281	2.9256	-0.0210
37
0
C	-1.4910	-3.8880	-0.5850
H	-0.8103	-4.0619	0.2515
H	-0.9045	-3.8013	-1.5023
H	-2.2112	-4.6979	-0.6655
O	-2.2466	-2.7089	-0.3685
C	-1.5447	-1.5669	-0.2937
O	-0.3305	-1.5223	-0.4037
C	-2.3752	-0.4127	-0.0703
C	-1.9306	0.9000	0.0442
N	-0.5982	1.2056	-0.0381
C	-0.0462	2.4675	-0.0123
O	-0.6849	3.4968	0.0378
N	1.3209	2.4885	-0.0785
C	2.2409	1.4268	-0.0777
C	3.3324	1.4765	-0.9368
C	4.2485	0.4425	-0.9432
C	4.1053	-0.6569	-0.1086
C	3.0250	-0.6958	0.7779
C	2.1153	0.3497	0.7939
H	1.3084	0.3319	1.5113
C	2.8430	-1.8538	1.7080
H	1.9766	-1.7026	2.3458
H	2.6950	-2.7706	1.1387
H	3.7226	-1.9893	2.3364
C	5.1003	-1.7753	-0.1509
H	4.6059	-2.7174	-0.3853
H	5.8609	-1.5862	-0.9039
H	5.5910	-1.8911	0.8153
H	5.0901	0.4885	-1.6193
H	3.4563	2.3204	-1.5996
H	1.6965	3.4076	-0.2675
H	0.0036	0.4003	-0.2105
C	-2.9964	1.8073	0.2607
C	-4.2010	1.1825	0.3032
S	-4.0998	-0.5160	0.0868
H	-5.1625	1.6329	0.4522
H	-2.8436	2.8646	0.3683
37
0
C	-1.8608	-3.9173	-0.4123
H	-2.6257	-4.6885	-0.4451
H	-1.1890	-4.0771	0.4340
H	-1.2717	-3.9203	-1.3321
O	-2.5488	-2.6862	-0.2708
C	-1.7802	-1.5882	-0.2015
O	-0.5617	-1.6220	-0.2536
C	-2.5447	-0.3765	-0.0610
C	-2.0211	0.9087	0.0243
N	-0.6687	1.1247	0.0016
C	-0.0380	2.3487	-0.0245
O	-0.6091	3.4165	-0.0856
N	1.3289	2.2794	-0.0127
C	2.1780	1.1747	0.1636
C	1.9233	0.1881	1.1094
C	2.8029	-0.8696	1.2435
C	3.9504	-0.9670	0.4708
C	4.2270	0.0423	-0.4574
C	3.3399	1.0966	-0.5977
H	3.5482	1.8772	-1.3164
C	5.4659	-0.0131	-1.2972
H	5.4756	-0.9176	-1.9043
H	5.5247	0.8477	-1.9580
H	6.3547	-0.0287	-0.6674
C	4.8827	-2.1268	0.6389
H	5.8756	-1.7844	0.9294
H	4.5147	-2.8079	1.4015
H	4.9833	-2.6765	-0.2965
H	2.5915	-1.6347	1.9759
H	1.0603	0.2538	1.7533
H	1.7754	3.1573	-0.2395
H	-0.1138	0.2743	-0.0957
C	-3.0339	1.8908	0.1491
C	-4.2777	1.3463	0.1545
S	-4.2778	-0.3631	0.0122
H	-5.2136	1.8629	0.2362
H	-2.8176	2.9399	0.2208
37
0
C	-4.3148	-1.1399	1.2342
H	-4.7986	-2.0989	1.0696
H	-5.0221	-0.3216	1.0834
H	-3.9197	-1.0780	2.2505
O	-3.2608	-1.0624	0.2885
C	-2.5265	0.0614	0.3194
O	-2.7232	0.9706	1.1018
C	-1.4769	0.0643	-0.6721
C	-0.5142	1.0497	-0.8301
N	-0.4677	2.1801	-0.0537
C	0.6565	2.8895	0.3457
O	0.5855	4.0500	0.6786
N	1.8464	2.2119	0.3159
C	2.0475	0.8245	0.4118
C	3.1225	0.2367	-0.2420
C	3.2812	-1.1355	-0.1999
C	2.3819	-1.9494	0.4738
C	1.3242	-1.3555	1.1698
C	1.1836	0.0222	1.1503
H	0.3811	0.4805	1.7097
C	0.3347	-2.1909	1.9210
H	0.8346	-2.8169	2.6589
H	-0.3891	-1.5611	2.4319
H	-0.2017	-2.8474	1.2359
C	2.5461	-3.4375	0.4605
H	2.6826	-3.8194	1.4718
H	1.6600	-3.9152	0.0437
H	3.4081	-3.7246	-0.1361
H	4.1157	-1.5850	-0.7186
H	3.8209	0.8516	-0.7900
H	2.6609	2.8024	0.4132
H	-1.3355	2.4280	0.4122
C	0.3692	0.7565	-1.9011
C	0.0822	-0.4263	-2.5009
S	-1.2693	-1.2232	-1.8130
H	0.5909	-0.8764	-3.3301
H	1.1638	1.4097	-2.2093
37
0
C	-6.0124	-1.5695	-0.8661
H	-6.0635	-2.2931	-0.0497
H	-5.6476	-2.0767	-1.7618
H	-6.9881	-1.1263	-1.0465
O	-5.1505	-0.4970	-0.5210
C	-3.8741	-0.8278	-0.2708
O	-3.4511	-1.9661	-0.3298
C	-3.0683	0.3170	0.0844
C	-1.7102	0.2993	0.3823
N	-0.9864	-0.8616	0.3415
C	0.3896	-1.0800	0.3109
O	0.8349	-2.1588	0.6223
N	1.1096	-0.0081	-0.1275
C	2.5010	0.1267	-0.2147
C	3.0050	1.2784	-0.8099
C	4.3706	1.4645	-0.8998
C	5.2620	0.5228	-0.4055
C	4.7552	-0.6345	0.1933
C	3.3847	-0.8214	0.2849
H	2.9927	-1.7152	0.7408
C	5.6812	-1.6778	0.7383
H	5.1185	-2.5071	1.1570
H	6.3319	-2.0603	-0.0473
H	6.3164	-1.2577	1.5178
C	6.7392	0.7462	-0.5153
H	7.2062	-0.0504	-1.0939
H	6.9503	1.6954	-1.0013
H	7.2017	0.7516	0.4713
H	4.7506	2.3629	-1.3650
H	2.3291	2.0262	-1.2022
H	0.5889	0.7534	-0.5391
H	-1.5539	-1.7073	0.3069
C	-1.2486	1.5871	0.7696
C	-2.2338	2.5233	0.7395
S	-3.7526	1.9000	0.2568
H	-2.1460	3.5616	0.9924
H	-0.2512	1.7981	1.1101
37
0
C	-4.5593	-1.5824	-1.3542
H	-4.8963	-2.6156	-1.3422
H	-4.2595	-1.2860	-2.3617
H	-5.3548	-0.9154	-1.0149
O	-3.4518	-1.5188	-0.4705
C	-2.8374	-0.3286	-0.3846
O	-3.1812	0.6518	-1.0159
C	-1.7277	-0.3428	0.5394
C	-0.8780	0.7221	0.8007
N	-1.0123	1.9400	0.1854
C	-0.0340	2.8891	-0.0637
O	-0.3113	4.0561	-0.2207
N	1.2599	2.4396	-0.0937
C	1.7243	1.1539	-0.4199
C	1.0372	0.3268	-1.3006
C	1.5157	-0.9445	-1.5533
C	2.6820	-1.4146	-0.9672
C	3.3996	-0.5668	-0.1175
C	2.9125	0.7034	0.1441
H	3.4601	1.3593	0.8065
C	4.6768	-1.0256	0.5157
H	5.1014	-0.2447	1.1410
H	4.5030	-1.9074	1.1314
H	5.4069	-1.2947	-0.2467
C	3.1673	-2.8024	-1.2513
H	2.4891	-3.3155	-1.9277
H	4.1576	-2.7789	-1.7052
H	3.2397	-3.3796	-0.3300
H	0.9684	-1.5848	-2.2298
H	0.1383	0.6739	-1.7862
H	1.9488	3.1794	-0.0793
H	-1.9231	2.1192	-0.2290
C	0.0808	0.3984	1.7953
C	-0.0410	-0.8795	2.2358
S	-1.3219	-1.7356	1.4871
H	0.5534	-1.3695	2.9811
H	0.8052	1.0954	2.1723
37
0
C	-4.6244	-1.5284	-1.3542
H	-5.3851	-0.8149	-1.0302
H	-5.0086	-2.5439	-1.3093
H	-4.3190	-1.2766	-2.3721
O	-3.5082	-1.4904	-0.4798
C	-2.8698	-0.3129	-0.3949
O	-3.1997	0.6763	-1.0203
C	-1.7552	-0.3508	0.5224
C	-0.8892	0.6999	0.7886
N	-1.0082	1.9219	0.1785
C	-0.0273	2.8733	-0.0472
O	-0.3040	4.0416	-0.1972
N	1.2683	2.4275	-0.0633
C	1.7459	1.1490	-0.3975
C	1.0708	0.3195	-1.2850
C	1.5670	-0.9431	-1.5473
C	2.7395	-1.4018	-0.9644
C	3.4443	-0.5514	-0.1068
C	2.9393	0.7097	0.1646
H	3.4774	1.3677	0.8328
C	4.7278	-0.9971	0.5233
H	5.1405	-0.2157	1.1558
H	4.5668	-1.8868	1.1309
H	5.4620	-1.2485	-0.2411
C	3.2452	-2.7797	-1.2607
H	4.2345	-2.7373	-1.7154
H	3.3275	-3.3637	-0.3445
H	2.5741	-3.2972	-1.9409
H	1.0294	-1.5851	-2.2298
H	0.1683	0.6580	-1.7700
H	1.9531	3.1707	-0.0327
H	-1.9169	2.1121	-0.2363
C	0.0646	0.3568	1.7814
C	-0.0769	-0.9212	2.2158
S	-1.3708	-1.7542	1.4635
H	0.5102	-1.4240	2.9585
H	0.7996	1.0402	2.1626
37
0
C	-4.4800	-1.6458	-1.3568
H	-4.1787	-1.3361	-2.3598
H	-5.2991	-1.0049	-1.0237
H	-4.7856	-2.6887	-1.3525
O	-3.3844	-1.5522	-0.4610
C	-2.7997	-0.3473	-0.3729
O	-3.1604	0.6228	-1.0107
C	-1.6969	-0.3331	0.5593
C	-0.8662	0.7480	0.8136
N	-1.0170	1.9600	0.1899
C	-0.0418	2.9060	-0.0844
O	-0.3191	4.0720	-0.2480
N	1.2498	2.4519	-0.1308
C	1.6993	1.1579	-0.4463
C	0.9986	0.3329	-1.3183
C	1.4571	-0.9479	-1.5592
C	2.6167	-1.4299	-0.9694
C	3.3486	-0.5845	-0.1296
C	2.8818	0.6957	0.1198
H	3.4402	1.3498	0.7749
C	4.6194	-1.0568	0.5067
H	5.0538	-0.2785	1.1284
H	4.4338	-1.9333	1.1263
H	5.3463	-1.3390	-0.2541
C	3.0793	-2.8282	-1.2389
H	4.0692	-2.8258	-1.6943
H	3.1435	-3.3965	-0.3115
H	2.3918	-3.3376	-1.9088
H	0.8990	-1.5866	-2.2284
H	0.1035	0.6889	-1.8048
H	1.9431	3.1876	-0.1335
H	-1.9307	2.1274	-0.2223
C	0.0975	0.4483	1.8111
C	-0.0030	-0.8279	2.2616
S	-1.2681	-1.7115	1.5177
H	0.5984	-1.3018	3.0117
H	0.8097	1.1610	2.1820
37
0
C	-4.6999	-1.4622	-1.3453
H	-5.1039	-2.4702	-1.3063
H	-4.4037	-1.2049	-2.3645
H	-5.4416	-0.7374	-1.0029
O	-3.5713	-1.4565	-0.4863
C	-2.9063	-0.2939	-0.4003
O	-3.2231	0.7073	-1.0136
C	-1.7826	-0.3621	0.5039
C	-0.8979	0.6717	0.7760
N	-1.0041	1.9007	0.1785
C	-0.0228	2.8567	-0.0236
O	-0.3020	4.0265	-0.1584
N	1.2748	2.4174	-0.0366
C	1.7677	1.1471	-0.3784
C	1.1036	0.3123	-1.2692
C	1.6179	-0.9416	-1.5382
C	2.7978	-1.3861	-0.9594
C	3.4917	-0.5296	-0.0988
C	2.9685	0.7223	0.1796
H	3.4982	1.3851	0.8499
C	4.7831	-0.9588	0.5264
H	5.5195	-1.1948	-0.2409
H	5.1851	-0.1744	1.1621
H	4.6372	-1.8541	1.1296
C	3.3230	-2.7553	-1.2625
H	2.6597	-3.2786	-1.9459
H	4.3120	-2.6968	-1.7161
H	3.4127	-3.3428	-0.3493
H	1.0888	-1.5881	-2.2232
H	0.1961	0.6400	-1.7521
H	1.9543	3.1647	0.0109
H	-1.9117	2.1023	-0.2341
C	0.0560	0.3022	1.7591
C	-0.1032	-0.9784	2.1797
S	-1.4148	-1.7822	1.4266
H	0.4809	-1.4989	2.9125
H	0.8038	0.9689	2.1447
37
0
C	-6.0682	-1.1687	-1.0880
H	-6.9770	-0.6204	-1.3211
H	-6.2532	-1.9017	-0.2998
H	-5.6948	-1.6907	-1.9715
O	-5.1262	-0.2023	-0.6510
C	-3.9017	-0.6673	-0.3584
O	-3.5866	-1.8375	-0.4544
C	-3.0093	0.3764	0.0893
C	-1.6749	0.2136	0.4443
N	-1.0622	-1.0085	0.3770
C	0.2882	-1.3537	0.3858
O	0.6206	-2.4817	0.6601
N	1.1204	-0.3346	0.0260
C	2.5203	-0.3290	-0.0040
C	3.2956	-1.3715	0.4852
C	4.6733	-1.2700	0.4332
C	5.3091	-0.1545	-0.0923
C	4.5281	0.8965	-0.5832
C	3.1480	0.7959	-0.5318
H	2.5434	1.6099	-0.9117
C	5.1712	2.1211	-1.1592
H	5.8045	2.6061	-0.4170
H	5.8006	1.8587	-2.0088
H	4.4207	2.8336	-1.4922
C	6.8047	-0.0793	-0.1327
H	7.1631	0.7786	0.4360
H	7.2452	-0.9799	0.2866
H	7.1572	0.0334	-1.1577
H	5.2699	-2.0862	0.8139
H	2.8227	-2.2489	0.8914
H	0.6886	0.4894	-0.3678
H	-1.7037	-1.7939	0.2783
C	-1.1121	1.4316	0.9146
C	-2.0015	2.4594	0.8891
S	-3.5478	2.0089	0.3105
H	-1.8280	3.4716	1.1972
H	-0.1164	1.5287	1.3077
37
0
C	4.4179	1.6938	-1.3590
H	5.2370	1.0360	-1.0603
H	4.7305	2.7340	-1.3228
H	4.1003	1.4217	-2.3679
O	3.3343	1.5763	-0.4517
C	2.7681	0.3621	-0.3682
O	3.1367	-0.5972	-1.0175
C	1.6743	0.3244	0.5740
C	0.8584	-0.7688	0.8230
N	1.0198	-1.9752	0.1905
C	0.0457	-2.9175	-0.1023
O	0.3223	-4.0817	-0.2778
N	-1.2445	-2.4590	-0.1498
C	-1.6821	-1.1595	-0.4615
C	-0.9727	-0.3403	-1.3319
C	-1.4157	0.9468	-1.5681
C	-2.5684	1.4409	-0.9747
C	-3.3095	0.6016	-0.1368
C	-2.8581	-0.6852	0.1077
H	-3.4233	-1.3344	0.7618
C	-4.5726	1.0881	0.5041
H	-5.0213	0.3098	1.1156
H	-4.3717	1.9531	1.1352
H	-5.2935	1.3932	-0.2535
C	-3.0132	2.8461	-1.2379
H	-3.0702	3.4109	-0.3078
H	-2.3193	3.3498	-1.9055
H	-4.0031	2.8584	-1.6933
H	-0.8507	1.5809	-2.2358
H	-0.0819	-0.7054	-1.8196
H	-1.9412	-3.1911	-0.1665
H	1.9333	-2.1315	-0.2258
C	-0.1049	-0.4893	1.8267
C	-0.0184	0.7842	2.2873
S	1.2327	1.6894	1.5457
H	-0.6222	1.2445	3.0440
H	-0.8071	-1.2142	2.1935
37
0
C	-4.7664	-1.4069	-1.3435
H	-5.4660	-0.6304	-1.0269
H	-5.2218	-2.3901	-1.2602
H	-4.4661	-1.2084	-2.3747
O	-3.6314	-1.4249	-0.4932
C	-2.9411	-0.2768	-0.4121
O	-3.2413	0.7313	-1.0225
C	-1.8141	-0.3689	0.4859
C	-0.9107	0.6483	0.7604
N	-0.9979	1.8796	0.1651
C	-0.0137	2.8378	-0.0076
O	-0.2922	4.0086	-0.1366
N	1.2851	2.4017	0.0009
C	1.7926	1.1403	-0.3517
C	1.1446	0.3076	-1.2561
C	1.6789	-0.9349	-1.5395
C	2.8621	-1.3703	-0.9607
C	3.5377	-0.5167	-0.0828
C	2.9952	0.7239	0.2089
H	3.5117	1.3849	0.8913
C	4.8307	-0.9365	0.5455
H	4.6937	-1.8436	1.1330
H	5.5764	-1.1490	-0.2196
H	5.2160	-0.1567	1.1970
C	3.4107	-2.7259	-1.2826
H	3.5053	-3.3266	-0.3785
H	2.7597	-3.2487	-1.9780
H	4.4010	-2.6441	-1.7298
H	1.1631	-1.5790	-2.2368
H	0.2354	0.6284	-1.7402
H	1.9599	3.1519	0.0678
H	-1.9020	2.0932	-0.2498
C	0.0363	0.2589	1.7425
C	-0.1463	-1.0198	2.1599
S	-1.4724	-1.7977	1.4051
H	0.4285	-1.5525	2.8912
H	0.7960	0.9102	2.1309
