44
0
C	-5.8858	-0.8526	-0.0084
C	-4.4808	-0.8220	-0.5641
O	-4.1569	-1.4499	-1.5485
N	-3.6017	-0.0362	0.1289
C	-2.2640	0.1702	-0.2037
C	-1.5555	-0.3201	-1.2907
C	-0.2197	0.0365	-1.4111
C	0.3801	0.8498	-0.4695
C	-0.3276	1.3519	0.6123
C	-1.6545	1.0082	0.7362
C	-2.6454	1.4075	1.7883
H	-2.3308	1.0619	2.7744
H	-2.7539	2.4914	1.8354
C	-3.9440	0.7207	1.3306
H	-4.7203	1.4557	1.0975
H	-4.3318	0.0460	2.0989
H	0.1675	2.0070	1.3110
S	2.1239	1.2474	-0.6182
O	2.4766	1.2038	-2.0066
O	2.3631	2.4511	0.1253
N	2.9633	0.0374	0.1381
C	2.9406	0.0100	1.5794
C	1.9009	-0.9700	2.1253
C	2.1421	-2.3522	1.5243
C	2.0936	-2.2671	-0.0000
H	2.3144	-3.2409	-0.4395
H	1.0834	-1.9809	-0.3029
C	3.0921	-1.2339	-0.5445
C	4.5391	-1.7276	-0.4801
H	5.2014	-0.9447	-0.8383
H	4.8267	-1.9885	0.5342
H	4.6566	-2.6041	-1.1119
H	2.8596	-1.0180	-1.5913
H	3.1148	-2.7262	1.8484
H	1.3825	-3.0534	1.8761
H	1.9742	-1.0069	3.2134
H	0.8978	-0.6289	1.8594
H	2.7393	1.0319	1.9015
H	3.9362	-0.2728	1.9383
H	0.3660	-0.2996	-2.2518
H	-2.0344	-0.9535	-2.0177
H	-5.8922	-1.2545	1.0025
H	-6.3151	0.1466	0.0104
H	-6.4907	-1.4894	-0.6477
44
0
C	6.2157	0.8350	0.2307
C	4.7879	0.9986	-0.2368
O	4.4364	1.9197	-0.9415
N	3.9231	0.0321	0.1969
C	2.5666	-0.0419	-0.1154
C	1.8172	0.7994	-0.9256
C	0.4708	0.5121	-1.0915
C	-0.0994	-0.5765	-0.4604
C	0.6444	-1.4199	0.3498
C	1.9833	-1.1451	0.5155
C	3.0124	-1.8816	1.3196
H	2.7488	-1.8910	2.3782
H	3.1018	-2.9173	0.9904
C	4.3024	-1.0845	1.0593
H	5.0555	-1.7006	0.5590
H	4.7336	-0.7068	1.9906
H	0.1606	-2.2602	0.8220
S	-1.8395	-0.8986	-0.7219
O	-2.0805	-1.0863	-2.1229
O	-2.2404	-1.9534	0.1734
N	-2.4745	0.5864	-0.2896
C	-3.6666	0.9991	-1.0000
C	-4.9290	0.3874	-0.3969
C	-5.0098	0.7462	1.0844
C	-3.7529	0.2534	1.7978
H	-3.7731	0.5383	2.8512
H	-3.7146	-0.8355	1.7327
C	-2.4753	0.8012	1.1473
C	-2.2234	2.2754	1.4626
H	-1.3306	2.6138	0.9431
H	-3.0605	2.8929	1.1517
H	-2.0778	2.4019	2.5322
H	-1.6214	0.2230	1.5214
H	-5.1077	1.8288	1.1946
H	-5.8901	0.2850	1.5363
H	-5.8076	0.7504	-0.9326
H	-4.8756	-0.6977	-0.5077
H	-3.5316	0.6725	-2.0318
H	-3.7185	2.0921	-0.9768
H	-0.1536	1.1296	-1.7163
H	2.2757	1.6448	-1.4095
H	6.6256	-0.1147	-0.1057
H	6.8056	1.6462	-0.1868
H	6.2732	0.8754	1.3162
44
0
C	-6.2372	0.5834	0.4586
C	-4.8692	0.8319	-0.1340
O	-4.6514	1.7377	-0.9087
N	-3.8964	-0.0402	0.2712
C	-2.5672	-0.0237	-0.1479
C	-1.9545	0.8325	-1.0502
C	-0.6050	0.6423	-1.3133
C	0.0976	-0.3680	-0.6873
C	-0.5104	-1.2269	0.2159
C	-1.8488	-1.0491	0.4781
C	-2.7509	-1.8254	1.3904
H	-2.7876	-2.8769	1.1038
H	-2.4032	-1.7742	2.4232
C	-4.1147	-1.1359	1.2123
H	-4.4901	-0.7427	2.1613
H	-4.8603	-1.8282	0.8103
H	0.0719	-2.0087	0.6756
S	1.8403	-0.6088	-1.0034
O	2.0834	-2.0021	-1.2436
O	2.2639	0.3326	-2.0054
N	2.4482	-0.2469	0.5154
C	3.6349	-0.9776	0.9094
C	4.9050	-0.3551	0.3344
C	4.9902	1.1087	0.7577
C	3.7400	1.8487	0.2877
H	3.7612	2.8878	0.6205
H	3.7108	1.8338	-0.8033
C	2.4551	1.1798	0.7944
C	2.1934	1.4293	2.2797
H	2.0418	2.4916	2.4510
H	1.3008	0.8917	2.5893
H	3.0280	1.0956	2.8888
H	1.6079	1.5852	0.2288
H	5.0816	1.1714	1.8448
H	5.8756	1.5757	0.3223
H	5.7782	-0.9107	0.6804
H	4.8592	-0.4185	-0.7548
H	3.5005	-1.9946	0.5394
H	3.6768	-0.9994	2.0030
H	-0.0825	1.2731	-2.0150
H	-2.5146	1.6164	-1.5307
H	-6.5962	-0.4095	0.1975
H	-6.2102	0.6714	1.5425
H	-6.9212	1.3265	0.0584
44
0
C	6.2731	0.7404	-0.5852
C	4.8381	1.0640	-0.2383
O	4.4680	2.1909	0.0104
N	3.9896	-0.0085	-0.2285
C	2.6304	0.0354	0.0773
C	1.8613	1.1290	0.4495
C	0.5163	0.9179	0.7117
C	-0.0329	-0.3447	0.5995
C	0.7305	-1.4405	0.2289
C	2.0680	-1.2405	-0.0297
C	3.1156	-2.2321	-0.4392
H	3.2140	-3.0283	0.2993
H	2.8647	-2.6944	-1.3950
C	4.3924	-1.3788	-0.5353
H	4.8285	-1.4240	-1.5372
H	5.1480	-1.7131	0.1818
H	0.2633	-2.4100	0.1587
S	-1.7737	-0.5487	0.9538
O	-2.1272	-1.9208	0.6977
O	-2.0538	-0.0209	2.2576
N	-2.4218	0.5036	-0.1733
C	-2.4151	-0.0300	-1.5181
C	-3.6331	-0.9089	-1.8000
C	-4.9111	-0.1306	-1.4991
C	-4.8787	0.3708	-0.0567
H	-5.7705	0.9600	0.1637
H	-4.8597	-0.4904	0.6152
C	-3.6276	1.2140	0.2225
C	-3.6746	2.5943	-0.4321
H	-2.7402	3.1188	-0.2518
H	-3.8293	2.5236	-1.5048
H	-4.4891	3.1714	-0.0024
H	-3.5270	1.3492	1.3038
H	-5.0013	0.7121	-2.1883
H	-5.7820	-0.7727	-1.6447
H	-3.6159	-1.2361	-2.8412
H	-3.5779	-1.7867	-1.1548
H	-1.4930	-0.6066	-1.6219
H	-2.3768	0.8104	-2.2186
H	-0.1234	1.7312	1.0129
H	2.3040	2.1069	0.5324
H	6.6904	0.0280	0.1230
H	6.3424	0.3194	-1.5859
H	6.8485	1.6611	-0.5463
44
0
C	-6.0469	-1.0789	0.2680
C	-4.6441	-1.1010	-0.2938
O	-4.2952	-1.8953	-1.1400
N	-3.7981	-0.1608	0.2259
C	-2.4694	0.0300	-0.1501
C	-1.7393	-0.6383	-1.1218
C	-0.4197	-0.2581	-1.3211
C	0.1436	0.7515	-0.5655
C	-0.5837	1.4252	0.4042
C	-1.8957	1.0600	0.6029
C	-2.9027	1.6170	1.5639
H	-2.5740	1.4846	2.5959
H	-3.0562	2.6838	1.3986
C	-4.1715	0.8014	1.2598
H	-4.9781	1.4442	0.8946
H	-4.5303	0.2742	2.1481
H	-0.1089	2.2163	0.9623
S	1.8690	1.1774	-0.8059
O	2.1474	1.1522	-2.2121
O	2.1380	2.3751	-0.0626
N	2.7409	-0.0396	-0.1141
C	2.9354	-1.2696	-0.8382
C	4.3276	-1.8233	-0.5383
C	4.5073	-1.9880	0.9683
C	4.2592	-0.6527	1.6672
H	4.3445	-0.7669	2.7488
H	5.0142	0.0623	1.3371
C	2.8756	-0.0828	1.3238
C	1.7445	-0.8542	2.0136
H	1.7481	-1.9025	1.7289
H	1.8671	-0.7901	3.0919
H	0.7802	-0.4287	1.7466
H	2.8282	0.9630	1.6433
H	3.8129	-2.7431	1.3413
H	5.5196	-2.3326	1.1879
H	4.4583	-2.7784	-1.0490
H	5.0721	-1.1220	-0.9172
H	2.8389	-1.0216	-1.8956
H	2.1688	-2.0135	-0.5747
H	0.1786	-0.7338	-2.0811
H	-2.1908	-1.4236	-1.7035
H	-6.5171	-0.1137	0.0937
H	-6.6249	-1.8527	-0.2293
H	-6.0371	-1.2744	1.3381
44
0
C	-6.0892	0.8739	0.4326
C	-4.7489	0.8432	-0.2651
O	-4.5435	1.4310	-1.3045
N	-3.7851	0.1063	0.3663
C	-2.4832	-0.0881	-0.0925
C	-1.8992	0.3725	-1.2634
C	-0.5750	0.0358	-1.5049
C	0.1328	-0.7334	-0.6018
C	-0.4481	-1.2005	0.5670
C	-1.7624	-0.8739	0.8131
C	-2.6324	-1.2469	1.9761
H	-2.7124	-2.3298	2.0759
H	-2.2269	-0.8560	2.9106
C	-3.9854	-0.6024	1.6278
H	-4.3055	0.0991	2.4033
H	-4.7661	-1.3595	1.5084
H	0.1258	-1.8196	1.2374
S	1.8580	-1.1085	-0.9121
O	2.1245	-2.4197	-0.3933
O	2.1443	-0.8290	-2.2886
N	2.7221	-0.0413	0.0013
C	2.9083	-0.2974	1.4056
C	4.3114	0.1408	1.8235
C	4.5316	1.6046	1.4518
C	4.2901	1.8006	-0.0438
H	4.4038	2.8515	-0.3133
H	5.0304	1.2220	-0.5983
C	2.8930	1.3178	-0.4593
C	1.7868	2.2622	0.0240
H	0.8112	1.8878	-0.2764
H	1.7984	2.3666	1.1054
H	1.9314	3.2449	-0.4173
H	2.8443	1.2544	-1.5507
H	3.8538	2.2368	2.0285
H	5.5522	1.9025	1.6993
H	4.4365	-0.0076	2.8973
H	5.0405	-0.4790	1.3001
H	2.7851	-1.3723	1.5407
H	2.1528	0.2271	2.0101
H	-0.0763	0.3555	-2.4061
H	-2.4627	0.9688	-1.9604
H	-6.4912	-0.1309	0.5412
H	-6.0000	1.3231	1.4194
H	-6.7717	1.4686	-0.1680
44
0
C	6.2695	0.6927	-0.5848
C	4.8612	0.9975	-0.1283
O	4.5441	2.0767	0.3230
N	3.9733	-0.0333	-0.2645
C	2.6280	0.0014	0.0998
C	1.9141	1.0397	0.6799
C	0.5717	0.8294	0.9578
C	-0.0285	-0.3796	0.6640
C	0.6810	-1.4197	0.0847
C	2.0148	-1.2212	-0.1917
C	3.0105	-2.1641	-0.7985
H	3.1104	-3.0690	-0.1982
H	2.7066	-2.4631	-1.8026
C	4.3115	-1.3428	-0.8165
H	4.6979	-1.2298	-1.8334
H	5.0876	-1.8144	-0.2065
H	0.1818	-2.3538	-0.1165
S	-1.7785	-0.5795	0.9710
O	-2.0900	-1.9815	0.9182
O	-2.1277	0.1567	2.1527
N	-2.3922	0.1980	-0.3755
C	-2.9172	-0.6582	-1.4157
C	-4.3912	-0.9862	-1.1846
C	-5.1921	0.3071	-1.0629
C	-4.6107	1.1721	0.0529
H	-5.1426	2.1229	0.1158
H	-4.7265	0.6500	1.0052
C	-3.1129	1.4389	-0.1500
C	-2.8236	2.4391	-1.2688
H	-3.2683	2.1255	-2.2086
H	-3.2304	3.4108	-1.0017
H	-1.7497	2.5340	-1.4084
H	-2.7076	1.8388	0.7836
H	-5.1610	0.8475	-2.0118
H	-6.2378	0.0816	-0.8444
H	-4.7666	-1.5972	-2.0073
H	-4.4706	-1.5603	-0.2598
H	-2.3198	-1.5697	-1.4054
H	-2.7792	-0.1567	-2.3789
H	-0.0213	1.6001	1.4226
H	2.3951	1.9756	0.9074
H	6.6861	-0.1394	-0.0218
H	6.2862	0.4416	-1.6431
H	6.8796	1.5762	-0.4193
44
0
C	-6.1424	-1.1276	0.0087
C	-4.6847	-1.1721	-0.3877
O	-4.2301	-2.0445	-1.0954
N	-3.9177	-0.1572	0.1142
C	-2.5564	0.0247	-0.1242
C	-1.7067	-0.7352	-0.9156
C	-0.3782	-0.3467	-1.0016
C	0.0771	0.7598	-0.3111
C	-0.7671	1.5224	0.4807
C	-2.0891	1.1476	0.5662
C	-3.2097	1.7830	1.3334
H	-3.0025	1.7784	2.4045
H	-3.3576	2.8193	1.0282
C	-4.4226	0.9037	0.9824
H	-5.1908	1.4790	0.4569
H	-4.8741	0.4694	1.8787
H	-0.3697	2.3790	1.0015
S	1.8011	1.2112	-0.4630
O	2.1086	1.4483	-1.8433
O	2.0801	2.2627	0.4800
N	2.5219	-0.2280	-0.0188
C	2.4432	-0.4880	1.4008
C	2.7206	-1.9654	1.6626
C	4.0839	-2.3435	1.0912
C	4.1304	-2.0041	-0.3969
H	5.1180	-2.2210	-0.8059
H	3.3995	-2.6227	-0.9209
C	3.7952	-0.5305	-0.6537
C	4.9131	0.4231	-0.2269
H	5.7998	0.2465	-0.8307
H	4.5798	1.4470	-0.3798
H	5.1745	0.2959	0.8201
H	3.6159	-0.3780	-1.7232
H	4.8671	-1.8022	1.6243
H	4.2646	-3.4112	1.2299
H	2.6851	-2.1588	2.7357
H	1.9452	-2.5605	1.1769
H	1.4308	-0.2206	1.7143
H	3.1450	0.1422	1.9629
H	0.3212	-0.8981	-1.6083
H	-2.0764	-1.5966	-1.4453
H	-6.2508	-1.2052	1.0884
H	-6.6048	-0.2007	-0.3230
H	-6.6483	-1.9669	-0.4602
44
0
C	-6.2211	-0.7350	0.3402
C	-4.9042	-0.0915	0.7088
O	-4.7755	0.6102	1.6881
N	-3.8692	-0.3631	-0.1433
C	-2.5710	0.1302	-0.0251
C	-2.0576	0.9963	0.9285
C	-0.7202	1.3542	0.8286
C	0.0668	0.8542	-0.1898
C	-0.4412	-0.0132	-1.1451
C	-1.7670	-0.3686	-1.0568
C	-2.5716	-1.2710	-1.9441
H	-2.5657	-0.9171	-2.9754
H	-2.1693	-2.2851	-1.9378
C	-3.9795	-1.2127	-1.3265
H	-4.3324	-2.2074	-1.0405
H	-4.7018	-0.7817	-2.0264
H	0.2050	-0.3721	-1.9293
S	1.7946	1.2939	-0.3118
O	2.1000	1.6069	-1.6780
O	2.1015	2.2733	0.6952
N	2.4922	-0.1882	0.0348
C	2.4267	-0.5279	1.4392
C	2.7065	-2.0172	1.6173
C	4.0642	-2.3649	1.0143
C	4.0971	-1.9431	-0.4528
H	5.0804	-2.1377	-0.8827
H	3.3600	-2.5304	-1.0038
C	3.7622	-0.4570	-0.6232
C	4.8857	0.4681	-0.1509
H	5.1507	0.2843	0.8867
H	5.7691	0.3203	-0.7672
H	4.5561	1.4999	-0.2472
H	3.5777	-0.2443	-1.6815
H	4.8527	-1.8545	1.5692
H	4.2448	-3.4388	1.0922
H	2.6800	-2.2679	2.6786
H	1.9265	-2.5856	1.1073
H	1.4177	-0.2805	1.7777
H	3.1336	0.0705	2.0285
H	-0.2724	2.0335	1.5366
H	-2.6833	1.3784	1.7170
H	-6.9638	-0.4339	1.0735
H	-6.5441	-0.4152	-0.6480
H	-6.1352	-1.8194	0.3458
44
0
C	5.9941	1.1149	-0.2363
C	4.5585	1.1694	0.2329
O	4.1335	2.0726	0.9203
N	3.7756	0.1267	-0.1786
C	2.4298	-0.0514	0.1381
C	1.6150	0.7423	0.9333
C	0.2955	0.3517	1.1035
C	-0.1852	-0.7911	0.4943
C	0.6244	-1.5878	-0.2993
C	1.9375	-1.2102	-0.4703
C	3.0232	-1.8772	-1.2606
H	3.1969	-2.8947	-0.9091
H	2.7609	-1.9314	-2.3182
C	4.2438	-0.9719	-1.0202
H	4.6406	-0.5785	-1.9603
H	5.0460	-1.5140	-0.5107
H	0.2093	-2.4732	-0.7538
S	-1.9044	-1.2245	0.7345
O	-2.1895	-2.3805	-0.0738
O	-2.1892	-1.2919	2.1383
N	-2.6345	0.1368	0.1402
C	-3.6918	0.7899	0.8721
C	-3.6288	2.2926	0.6090
C	-3.7146	2.5507	-0.8933
C	-2.5962	1.8018	-1.6154
H	-2.6797	1.9426	-2.6940
H	-1.6349	2.2056	-1.2906
C	-2.6217	0.3001	-1.2974
C	-3.7653	-0.4438	-1.9904
H	-4.7320	-0.0317	-1.7166
H	-3.6507	-0.3755	-3.0693
H	-3.7310	-1.4892	-1.6949
H	-1.6779	-0.1497	-1.6306
H	-4.6858	2.2205	-1.2656
H	-3.6273	3.6200	-1.0958
H	-4.4469	2.7900	1.1316
H	-2.6847	2.6853	0.9903
H	-3.5272	0.5564	1.9245
H	-4.6784	0.4009	0.5845
H	-0.3760	0.9285	1.7185
H	2.0041	1.6305	1.4011
H	6.5158	1.9801	0.1630
H	6.4816	0.2090	0.1170
H	6.0458	1.1383	-1.3227
44
0
C	-6.3148	-1.0604	-0.0923
C	-4.8175	-1.2620	-0.1351
O	-4.3130	-2.3560	-0.2709
N	-4.0767	-0.1205	-0.0095
C	-2.6841	-0.0523	-0.0208
C	-1.7670	-1.0829	-0.1536
C	-0.4160	-0.7621	-0.1339
C	-0.0053	0.5470	0.0127
C	-0.9207	1.5811	0.1452
C	-2.2614	1.2725	0.1287
C	-3.4485	2.1796	0.2534
H	-3.4347	2.7137	1.2042
H	-3.4600	2.9222	-0.5452
C	-4.6439	1.2156	0.1561
H	-5.2819	1.4575	-0.6989
H	-5.2576	1.2496	1.0610
H	-0.5629	2.5917	0.2588
S	1.7291	1.0055	0.0384
O	1.9794	1.7885	-1.1416
O	1.9934	1.6185	1.3111
N	2.5035	-0.4697	-0.0539
C	3.0221	-0.8121	-1.3620
C	4.4245	-0.2480	-1.5792
C	5.3490	-0.7174	-0.4594
C	4.7672	-0.3164	0.8945
H	5.3964	-0.6864	1.7056
H	4.7308	0.7734	0.9577
C	3.3365	-0.8393	1.0788
C	3.2732	-2.3460	1.3269
H	3.7443	-2.9038	0.5229
H	3.7855	-2.5810	2.2561
H	2.2374	-2.6649	1.4108
H	2.8890	-0.3293	1.9368
H	5.4663	-1.8023	-0.5107
H	6.3385	-0.2716	-0.5793
H	4.8026	-0.5675	-2.5517
H	4.3563	0.8412	-1.5728
H	2.3286	-0.3970	-2.0939
H	3.0260	-1.9028	-1.4572
H	0.3272	-1.5366	-0.2323
H	-2.0992	-2.1006	-0.2679
H	-6.6175	-0.6183	0.8544
H	-6.6396	-0.4096	-0.9011
H	-6.7923	-2.0300	-0.2016
44
0
C	-6.0575	-0.6743	-0.6073
C	-4.7361	0.0302	-0.8128
O	-4.5753	0.8728	-1.6685
N	-3.7365	-0.3561	0.0370
C	-2.4417	0.1599	0.0534
C	-1.8984	1.1610	-0.7375
C	-0.5717	1.5096	-0.5250
C	0.1765	0.8707	0.4434
C	-0.3618	-0.1318	1.2359
C	-1.6778	-0.4789	1.0371
C	-2.5091	-1.5054	1.7471
H	-2.0898	-2.5049	1.6220
H	-2.5607	-1.2980	2.8164
C	-3.8856	-1.3760	1.0721
H	-4.6520	-1.0679	1.7895
H	-4.2000	-2.3217	0.6215
H	0.2528	-0.5977	1.9889
S	1.8994	1.2799	0.6869
O	2.2136	2.4383	-0.1036
O	2.1803	1.3150	2.0936
N	2.6036	-0.0921	0.0747
C	3.6448	-0.7698	0.8080
C	3.5727	-2.2659	0.5119
C	3.6854	-2.4924	-0.9937
C	2.5898	-1.7148	-1.7206
H	2.6942	-1.8310	-2.8002
H	1.6176	-2.1160	-1.4259
C	2.6230	-0.2210	-1.3674
C	3.7895	0.5248	-2.0187
H	3.7603	1.5638	-1.7012
H	4.7462	0.0959	-1.7349
H	3.6960	0.4818	-3.1009
H	1.6921	0.2446	-1.7128
H	4.6670	-2.1644	-1.3391
H	3.5915	-3.5561	-1.2219
H	4.3754	-2.7828	1.0395
H	2.6168	-2.6556	0.8667
H	3.4676	-0.5577	1.8627
H	4.6391	-0.3843	0.5437
H	-0.1039	2.2909	-1.1029
H	-2.4937	1.6507	-1.4890
H	-6.7699	-0.2769	-1.3247
H	-5.9523	-1.7453	-0.7663
H	-6.4325	-0.5058	0.3997
44
0
C	5.8917	0.8052	0.0319
C	4.4780	0.8742	-0.4976
O	4.1482	1.6448	-1.3728
N	3.5985	0.0050	0.0866
C	2.2531	-0.1343	-0.2498
C	1.5349	0.5204	-1.2391
C	0.1926	0.2005	-1.3888
C	-0.4041	-0.7379	-0.5691
C	0.3144	-1.4047	0.4118
C	1.6472	-1.0980	0.5636
C	2.6490	-1.6617	1.5263
H	2.3541	-1.4658	2.5586
H	2.7449	-2.7413	1.4076
C	3.9489	-0.9265	1.1559
H	4.7132	-1.6257	0.8036
H	4.3553	-0.3780	2.0103
H	-0.1785	-2.1556	1.0085
S	-2.1563	-1.0882	-0.7307
O	-2.5492	-0.8134	-2.0812
O	-2.3962	-2.3925	-0.1827
N	-2.9451	-0.0039	0.2345
C	-2.9026	-0.1948	1.6586
C	-1.7589	0.5857	2.3323
C	-1.4320	1.8567	1.5376
C	-2.6758	2.3661	0.8158
H	-3.4819	2.5147	1.5367
H	-2.4722	3.3243	0.3369
C	-3.1114	1.3550	-0.2511
C	-4.5585	1.5694	-0.6938
H	-5.2374	1.4110	0.1407
H	-4.6902	2.5803	-1.0714
H	-4.7982	0.8593	-1.4797
H	-2.4660	1.4524	-1.1295
H	-1.0423	2.6252	2.2071
H	-0.6602	1.6416	0.7947
H	-2.0672	0.8457	3.3463
H	-0.8654	-0.0354	2.4045
H	-2.8038	-1.2681	1.8208
H	-3.8657	0.1229	2.0711
H	-0.3982	0.6644	-2.1623
H	2.0111	1.2501	-1.8714
H	5.9194	1.0521	1.0910
H	6.3072	-0.1905	-0.1056
H	6.4957	1.5229	-0.5162
44
0
C	-6.1941	-0.7263	0.2399
C	-4.7747	-0.9249	-0.2397
O	-4.4509	-1.8570	-0.9433
N	-3.8840	0.0234	0.1815
C	-2.5294	0.0655	-0.1447
C	-1.8073	-0.7958	-0.9590
C	-0.4560	-0.5409	-1.1372
C	0.1453	0.5373	-0.5167
C	-0.5715	1.4005	0.2966
C	-1.9149	1.1576	0.4756
C	-2.9191	1.9212	1.2859
H	-2.6446	1.9305	2.3418
H	-2.9889	2.9567	0.9516
C	-4.2292	1.1515	1.0431
H	-4.9741	1.7820	0.5486
H	-4.6580	0.7871	1.9808
H	-0.0656	2.2332	0.7587
S	1.8976	0.7939	-0.7653
O	2.1806	0.8388	-2.1697
O	2.3007	1.9175	0.0412
N	2.4796	-0.6552	-0.1763
C	3.6433	-1.1991	-0.8381
C	4.9376	-0.4876	-0.4132
C	4.8005	0.0503	1.0166
C	3.8886	-0.8608	1.8337
H	4.2457	-1.8915	1.7776
H	3.8843	-0.5610	2.8822
C	2.4625	-0.7662	1.2738
C	1.5982	-1.9554	1.6935
H	1.5655	-2.0259	2.7777
H	0.5863	-1.8380	1.3140
H	2.0109	-2.8789	1.2952
H	2.0011	0.1576	1.6404
H	5.7828	0.1304	1.4843
H	4.3534	1.0457	0.9883
H	5.7691	-1.1922	-0.4785
H	5.1382	0.3408	-1.0927
H	3.4724	-1.0841	-1.9083
H	3.6875	-2.2663	-0.6028
H	0.1484	-1.1762	-1.7638
H	-2.2894	-1.6326	-1.4348
H	-6.2425	-0.7597	1.3261
H	-6.5852	0.2307	-0.0978
H	-6.8060	-1.5260	-0.1678
44
0
C	-6.2660	0.6314	0.5635
C	-4.8429	0.9826	0.1949
O	-4.5066	2.1098	-0.0964
N	-3.9646	-0.0652	0.2173
C	-2.6079	0.0064	-0.0956
C	-1.8716	1.1068	-0.5112
C	-0.5216	0.9243	-0.7692
C	0.0646	-0.3167	-0.6139
C	-0.6668	-1.4189	-0.2011
C	-2.0090	-1.2482	0.0538
C	-3.0274	-2.2550	0.4985
H	-3.1067	-3.0754	-0.2154
H	-2.7608	-2.6815	1.4666
C	-4.3269	-1.4346	0.5744
H	-4.7549	-1.4570	1.5805
H	-5.0777	-1.8144	-0.1250
H	-0.1748	-2.3736	-0.1038
S	1.8191	-0.4793	-0.9196
O	2.1603	-1.8727	-0.8158
O	2.1487	0.2106	-2.1339
N	2.4120	0.4010	0.3717
C	2.6482	-0.3876	1.5575
C	3.9674	-1.1771	1.4749
C	4.9135	-0.4995	0.4797
C	4.7874	1.0163	0.5968
H	4.9257	1.3134	1.6393
H	5.5501	1.5158	-0.0010
C	3.3933	1.4419	0.1088
C	2.9434	2.7590	0.7406
H	3.6558	3.5434	0.4987
H	1.9646	3.0428	0.3642
H	2.8827	2.6643	1.8224
H	3.4062	1.5551	-0.9790
H	5.9404	-0.8184	0.6634
H	4.6398	-0.7982	-0.5348
H	4.4255	-1.2186	2.4650
H	3.7671	-2.1941	1.1409
H	1.7973	-1.0612	1.6680
H	2.6565	0.2958	2.4114
H	0.0921	1.7429	-1.1082
H	-2.3424	2.0678	-0.6295
H	-6.3167	0.2415	1.5777
H	-6.8668	1.5343	0.4993
H	-6.6684	-0.1147	-0.1180
44
0
C	6.2419	0.6658	0.4387
C	4.8197	0.9846	0.0386
O	4.4937	2.0696	-0.3917
N	3.9297	-0.0407	0.2008
C	2.5749	0.0019	-0.1250
C	1.8499	1.0472	-0.6795
C	0.5007	0.8429	-0.9252
C	-0.0954	-0.3662	-0.6234
C	0.6235	-1.4122	-0.0670
C	1.9645	-1.2189	0.1787
C	2.9702	-2.1660	0.7616
H	2.6954	-2.4508	1.7784
H	3.0422	-3.0785	0.1691
C	4.2786	-1.3571	0.7296
H	5.0226	-1.8319	0.0830
H	4.7101	-1.2549	1.7292
H	0.1218	-2.3419	0.1491
S	-1.8439	-0.5564	-0.9494
O	-2.1145	-0.1701	-2.3043
O	-2.2305	-1.8786	-0.5327
N	-2.4445	0.6262	0.0645
C	-3.4370	1.5398	-0.4590
C	-4.8588	1.1984	0.0150
C	-4.8974	-0.2659	0.4367
C	-3.9988	-0.4685	1.6562
H	-4.4693	-0.0169	2.5321
H	-3.8833	-1.5360	1.8409
C	-2.6111	0.1762	1.4316
C	-2.3391	1.3294	2.3969
H	-2.3205	0.9568	3.4179
H	-1.3772	1.7827	2.1701
H	-3.1107	2.0899	2.3172
H	-1.8311	-0.5788	1.5718
H	-5.9175	-0.5702	0.6764
H	-4.5381	-0.8885	-0.3849
H	-5.1365	1.8232	0.8671
H	-5.5716	1.3884	-0.7875
H	-3.3629	1.4548	-1.5439
H	-3.1604	2.5609	-0.1730
H	-0.1050	1.6198	-1.3627
H	2.3286	1.9831	-0.9118
H	6.2981	0.4124	1.4951
H	6.6280	-0.1692	-0.1417
H	6.8532	1.5439	0.2508
44
0
C	-6.2709	-0.5135	0.4853
C	-4.9574	0.2295	0.5717
O	-4.8550	1.3066	1.1172
N	-3.8946	-0.4056	-0.0093
C	-2.5912	0.0849	-0.0702
C	-2.0952	1.2878	0.4092
C	-0.7464	1.5557	0.2214
C	0.0694	0.6440	-0.4189
C	-0.4225	-0.5578	-0.9040
C	-1.7589	-0.8303	-0.7243
C	-2.5481	-2.0351	-1.1420
H	-2.5034	-2.1793	-2.2220
H	-2.1627	-2.9396	-0.6691
C	-3.9744	-1.7071	-0.6674
H	-4.3438	-2.4587	0.0361
H	-4.6710	-1.6557	-1.5095
H	0.2428	-1.2405	-1.4070
S	1.8012	1.0011	-0.6859
O	2.0195	1.0173	-2.1060
O	2.1552	2.1736	0.0664
N	2.5370	-0.3693	-0.0528
C	3.5202	-1.0111	-0.9037
C	4.9322	-0.5557	-0.5489
C	5.2782	-0.9710	0.8887
C	4.0090	-1.2248	1.7078
H	3.6378	-2.2354	1.5286
H	4.2325	-1.1392	2.7719
C	2.9042	-0.2307	1.3544
C	1.6628	-0.4539	2.2155
H	0.9267	0.3206	2.0225
H	1.2191	-1.4210	1.9890
H	1.9311	-0.4253	3.2687
H	3.2698	0.7914	1.5252
H	5.8843	-1.8788	0.8854
H	5.8674	-0.1844	1.3622
H	5.6472	-0.9759	-1.2566
H	4.9604	0.5311	-0.6465
H	3.2718	-0.7303	-1.9274
H	3.4246	-2.0976	-0.8024
H	-0.3093	2.4770	0.5726
H	-2.7423	1.9890	0.9077
H	-6.2042	-1.4749	0.9899
H	-7.0349	0.0892	0.9682
H	-6.5516	-0.6819	-0.5520
44
0
C	-6.3077	-0.0377	-0.7201
C	-4.9512	0.6023	-0.5331
O	-4.7649	1.7887	-0.6940
N	-3.9510	-0.2577	-0.1718
C	-2.6261	0.0978	0.0759
C	-2.0450	1.3560	0.0370
C	-0.6933	1.4578	0.3359
C	0.0425	0.3351	0.6578
C	-0.5341	-0.9256	0.6962
C	-1.8741	-1.0353	0.4068
C	-2.7456	-2.2554	0.3828
H	-2.3938	-2.9734	-0.3596
H	-2.7504	-2.7546	1.3522
C	-4.1317	-1.6943	0.0208
H	-4.8540	-1.8735	0.8229
H	-4.5194	-2.1478	-0.8957
H	0.0713	-1.7761	0.9644
S	1.7921	0.4530	1.0058
O	2.1443	1.8433	1.1074
O	2.1005	-0.4095	2.1104
N	2.4001	-0.2450	-0.3841
C	2.5251	0.6520	-1.5125
C	3.9883	1.0140	-1.8147
C	4.8138	0.8125	-0.5487
C	4.8382	-0.6743	-0.1966
H	5.4697	-1.2033	-0.9138
H	5.2701	-0.8064	0.7955
C	3.4122	-1.2722	-0.2347
C	3.2523	-2.3226	-1.3341
H	3.9056	-3.1671	-1.1303
H	2.2240	-2.6743	-1.3661
H	3.5085	-1.9104	-2.3064
H	3.1862	-1.7381	0.7276
H	5.8326	1.1756	-0.6927
H	4.3582	1.3804	0.2645
H	4.3833	0.3748	-2.6075
H	4.0477	2.0479	-2.1538
H	1.9655	1.5490	-1.2447
H	2.0430	0.1962	-2.3853
H	-0.1982	2.4157	0.3354
H	-2.6309	2.2237	-0.2137
H	-6.2770	-0.7825	-1.5124
H	-6.6378	-0.5180	0.1982
H	-7.0163	0.7400	-0.9908
44
0
C	-5.9751	-1.0095	-0.0786
C	-4.5981	-0.7799	-0.6575
O	-4.3055	-1.1046	-1.7877
N	-3.7066	-0.1825	0.1902
C	-2.3907	0.1541	-0.1236
C	-1.7225	0.0066	-1.3301
C	-0.4035	0.4322	-1.4001
C	0.2193	0.9819	-0.2962
C	-0.4472	1.1360	0.9107
C	-1.7581	0.7235	0.9866
C	-2.7083	0.7840	2.1450
H	-2.3418	0.1908	2.9844
H	-2.8379	1.8087	2.4943
C	-4.0114	0.2070	1.5648
H	-4.8119	0.9529	1.5701
H	-4.3515	-0.6632	2.1330
H	0.0633	1.5961	1.7414
S	1.9538	1.4257	-0.3686
O	2.3197	1.6730	-1.7313
O	2.2043	2.4376	0.6164
N	2.7468	0.0574	0.1217
C	2.5997	-0.2988	1.5122
C	3.5880	-1.4051	1.8593
C	3.2934	-2.6716	1.0401
C	2.4582	-2.3539	-0.2051
H	2.5682	-3.1511	-0.9411
H	1.4005	-2.3013	0.0642
C	2.8569	-1.0241	-0.8462
C	4.2663	-1.0395	-1.4391
H	5.0128	-1.2168	-0.6715
H	4.3438	-1.8141	-2.1982
H	4.4590	-0.0733	-1.8965
H	2.1596	-0.8033	-1.6625
H	4.2317	-3.1411	0.7442
H	2.7472	-3.3946	1.6487
H	4.5912	-1.0381	1.6424
H	3.5334	-1.6178	2.9274
H	1.5730	-0.6282	1.7407
H	2.8046	0.6076	2.0845
H	0.1466	0.3639	-2.3249
H	-2.2198	-0.4205	-2.1841
H	-6.5940	-1.4683	-0.8445
H	-5.9260	-1.6720	0.7829
H	-6.4259	-0.0689	0.2296
44
0
C	6.1085	1.0930	0.0461
C	4.6521	1.1543	-0.3530
O	4.2027	2.0487	-1.0361
N	3.8802	0.1276	0.1164
C	2.5191	-0.0425	-0.1314
C	1.6738	0.7454	-0.8999
C	0.3447	0.3633	-1.0024
C	-0.1153	-0.7644	-0.3504
C	0.7239	-1.5544	0.4193
C	2.0467	-1.1860	0.5207
C	3.1636	-1.8499	1.2691
H	2.9523	-1.8846	2.3388
H	3.3117	-2.8744	0.9265
C	4.3788	-0.9598	0.9551
H	5.1518	-1.5180	0.4186
H	4.8225	-0.5531	1.8681
H	0.3225	-2.4265	0.9101
S	-1.8425	-1.1949	-0.5151
O	-2.1657	-1.3232	-1.9062
O	-2.1189	-2.3127	0.3490
N	-2.5486	0.2049	0.0515
C	-2.4563	0.3317	1.4909
C	-3.0639	1.6620	1.9521
C	-3.0938	2.6352	0.7790
C	-4.0456	2.1056	-0.2932
H	-5.0745	2.2340	0.0470
H	-3.9232	2.6859	-1.2079
C	-3.7957	0.6074	-0.5727
C	-4.9688	-0.2752	-0.1399
H	-5.2062	-0.1275	0.9110
H	-5.8490	-0.0418	-0.7340
H	-4.7052	-1.3192	-0.2963
H	-3.6276	0.4429	-1.6409
H	-3.4239	3.6210	1.1105
H	-2.0875	2.7291	0.3684
H	-4.0828	1.5096	2.3120
H	-2.4762	2.0673	2.7762
H	-1.3876	0.2957	1.7256
H	-2.9329	-0.5216	1.9908
H	-0.3515	0.9353	-1.5938
H	2.0473	1.6226	-1.4001
H	6.6179	1.9460	-0.3934
H	6.2141	1.1343	1.1281
H	6.5694	0.1764	-0.3150
44
0
C	5.9519	1.2308	0.1190
C	4.4765	1.3049	-0.2003
O	3.9636	2.2949	-0.6758
N	3.7648	0.1742	0.0888
C	2.3995	-0.0032	-0.1309
C	1.4899	0.8828	-0.6896
C	0.1707	0.4710	-0.8086
C	-0.2188	-0.7802	-0.3731
C	0.6870	-1.6705	0.1814
C	1.9998	-1.2725	0.2982
C	3.1749	-2.0228	0.8494
H	3.0165	-2.2852	1.8963
H	3.3442	-2.9477	0.2969
C	4.3401	-1.0326	0.6780
H	5.1120	-1.4375	0.0169
H	4.8045	-0.7929	1.6388
H	0.3442	-2.6397	0.5069
S	-1.9273	-1.2759	-0.5785
O	-2.1559	-1.4645	-1.9836
O	-2.1921	-2.3816	0.3024
N	-2.7508	0.0887	-0.0936
C	-3.7021	0.6700	-1.0137
C	-3.7248	2.1944	-0.8388
C	-3.4134	2.5550	0.6184
C	-3.9238	1.4556	1.5445
H	-3.8128	1.7538	2.5873
H	-4.9864	1.2943	1.3564
C	-3.1364	0.1547	1.3080
C	-1.8856	0.0943	2.1809
H	-1.1943	0.8905	1.9157
H	-2.1625	0.1968	3.2276
H	-1.3899	-0.8619	2.0460
H	-3.7679	-0.7134	1.5558
H	-2.3353	2.6534	0.7508
H	-3.8719	3.5106	0.8764
H	-2.9941	2.6644	-1.4974
H	-4.7121	2.5639	-1.1191
H	-4.7038	0.2515	-0.8420
H	-3.3897	0.3834	-2.0172
H	-0.5710	1.1229	-1.2403
H	1.8071	1.8570	-1.0206
H	6.4268	0.4257	-0.4372
H	6.4088	2.1758	-0.1611
H	6.1087	1.0606	1.1819
44
0
C	6.0539	-1.1176	-0.0674
C	4.6435	-1.0546	0.4722
O	4.2769	-1.7255	1.4124
N	3.8127	-0.1868	-0.1812
C	2.4793	0.0585	0.1425
C	1.7246	-0.4829	1.1739
C	0.4048	-0.0755	1.2958
C	-0.1337	0.8396	0.4119
C	0.6160	1.3859	-0.6177
C	1.9283	0.9891	-0.7443
C	2.9567	1.4133	-1.7495
H	2.6420	1.1590	-2.7627
H	3.1212	2.4906	-1.7133
C	4.2105	0.6278	-1.3269
H	5.0229	1.3017	-1.0393
H	4.5699	-0.0156	-2.1349
H	0.1593	2.1032	-1.2805
S	-1.8529	1.2916	0.5948
O	-2.1272	1.5721	1.9733
O	-2.1588	2.3054	-0.3811
N	-2.5932	-0.1547	0.2189
C	-3.7502	-0.5132	1.0156
C	-4.1927	-1.9244	0.6537
C	-4.6407	-1.9911	-0.8146
C	-4.0642	-0.8270	-1.6278
H	-4.0692	-1.0733	-2.6904
H	-4.6861	0.0595	-1.4931
C	-2.6385	-0.4715	-1.2007
C	-1.6393	-1.5850	-1.5276
H	-0.6376	-1.2879	-1.2276
H	-1.8946	-2.5007	-1.0042
H	-1.6424	-1.7791	-2.5975
H	-2.3312	0.4355	-1.7367
H	-4.3270	-2.9402	-1.2509
H	-5.7295	-1.9507	-0.8763
H	-3.3518	-2.5975	0.8253
H	-5.0039	-2.2279	1.3158
H	-4.5777	0.1939	0.8658
H	-3.4419	-0.4475	2.0599
H	-0.2225	-0.4594	2.0835
H	2.1588	-1.1952	1.8545
H	6.0563	-1.4517	-1.1026
H	6.5314	-0.1418	-0.0142
H	6.6175	-1.8241	0.5355
